data/public_benchmarks/arpae_go/extracted/Challenge_1_Original_Dataset_2_Scenarios/Original_Dataset_Real-Time_Edition_2/Network_05R-010/scenario_8/case.raw
 0,    100, 33, 0, 0, 60.0 / Header line 1
Header line 2
Header line 3
  1001,'',   115, 1, 1, 1, 1, 1.005685, -23.049134, 1.1, 0.9, 1.1, 0.9
  1002,'',   115, 1, 1, 1, 1, 1.0471263, -24.448107, 1.1, 0.9, 1.1, 0.9
  1003,'',   115, 1, 1, 1, 1, 1.0164107, -16.980972, 1.1, 0.9, 1.1, 0.9
  1004,'',   230, 2, 1, 1, 1, 1.0179921, -16.366063, 1.1, 0.9, 1.1, 0.9
  1005,'',   115, 1, 1, 1, 1, 1.0092415, -7.9916977, 1.1, 0.9, 1.1, 0.9
  1006,'',  13.8, 2, 1, 1, 1, 1.0028002, -6.0845042, 1.1, 0.9, 1.1, 0.9
  1007,'',   115, 1, 1, 1, 1, 1.0497821, -24.254433, 1.1, 0.9, 1.1, 0.9
  1008,'',   115, 1, 1, 1, 1, 1.018171, -15.015807, 1.1, 0.9, 1.1, 0.9
  1009,'',  13.8, 2, 1, 1, 1, 1.0072424, -14.93323, 1.1, 0.9, 1.1, 0.9
  1010,'',   115, 1, 1, 1, 1, 1.0499723, -23.701638, 1.1, 0.9, 1.1, 0.9
  1011,'',    22, 2, 1, 1, 1, 1.0499723, -23.701638, 1.1, 0.9, 1.1, 0.9
  1012,'',   115, 1, 1, 1, 1, 1.0189716, -23.393436, 1.1, 0.9, 1.1, 0.9
  1013,'',   115, 1, 1, 1, 1, 1.0119379, -20.976034, 1.1, 0.9, 1.1, 0.9
  1014,'',   115, 1, 1, 1, 1, 1.013208, -18.780997, 1.1, 0.9, 1.1, 0.9
  1015,'',   115, 1, 1, 1, 1, 1.0538244, -24.420272, 1.1, 0.9, 1.1, 0.9
  1016,'',   115, 1, 1, 1, 1, 1.015, -9.3574114, 1.1, 0.9, 1.1, 0.9
  1017,'',   115, 1, 1, 1, 1, 1.0030627, -22.208846, 1.1, 0.9, 1.1, 0.9
  1018,'',   115, 1, 1, 1, 1, 1.007053, -20.869841, 1.1, 0.9, 1.1, 0.9
  1019,'',   115, 1, 1, 1, 1, 1.015, -22.319237, 1.1, 0.9, 1.1, 0.9
  1020,'',   115, 1, 1, 1, 1, 1.0153345, -10.700523, 1.1, 0.9, 1.1, 0.9
  1021,'',  13.8, 2, 1, 1, 1, 1, -6.2554026, 1.1, 0.9, 1.1, 0.9
  1022,'',   115, 1, 1, 1, 1, 1.0175131, -16.762403, 1.1, 0.9, 1.1, 0.9
  1023,'',  13.8, 2, 1, 1, 1, 1.01, -16.651347, 1.1, 0.9, 1.1, 0.9
  1024,'',   115, 1, 1, 1, 1, 1.0057957, -19.80198, 1.1, 0.9, 1.1, 0.9
  1025,'',   115, 1, 1, 1, 1, 1.0179572, -8.6762626, 1.1, 0.9, 1.1, 0.9
  1026,'',  13.8, 2, 1, 1, 1, 1.03, 0.31701685, 1.1, 0.9, 1.1, 0.9
  1027,'',   115, 1, 1, 1, 1, 1, -22.666813, 1.1, 0.9, 1.1, 0.9
  1028,'',   115, 1, 1, 1, 1, 1.0213025, -16.31411, 1.1, 0.9, 1.1, 0.9
  1029,'',   115, 1, 1, 1, 1, 1.015, -22.522607, 1.1, 0.9, 1.1, 0.9
  1030,'',   115, 1, 1, 1, 1, 1.025539, -20.547062, 1.1, 0.9, 1.1, 0.9
  1031,'',   115, 1, 1, 1, 1, 1.0320355, -23.127849, 1.1, 0.9, 1.1, 0.9
  1032,'',   115, 1, 1, 1, 1, 1.0024498, -17.253165, 1.1, 0.9, 1.1, 0.9
  1033,'',   230, 2, 1, 1, 1, 1.008405, -20.904458, 1.1, 0.9, 1.1, 0.9
  1034,'',   115, 1, 1, 1, 1, 1.0066682, -7.1578713, 1.1, 0.9, 1.1, 0.9
  1035,'',  13.8, 2, 1, 1, 1, 1, -3.699181, 1.1, 0.9, 1.1, 0.9
  1036,'',   115, 1, 1, 1, 1, 0.99802041, -14.503621, 1.1, 0.9, 1.1, 0.9
  1037,'',   115, 1, 1, 1, 1, 1.0005798, -23.010885, 1.1, 0.9, 1.1, 0.9
  1038,'',   115, 1, 1, 1, 1, 1.0119511, -16.012102, 1.1, 0.9, 1.1, 0.9
  1039,'',    22, 2, 1, 1, 1, 1, -15.042522, 1.1, 0.9, 1.1, 0.9
  1040,'',   115, 1, 1, 1, 1, 1.006719, -20.607724, 1.1, 0.9, 1.1, 0.9
  1041,'',   115, 1, 1, 1, 1, 1.0067785, -7.9685578, 1.1, 0.9, 1.1, 0.9
  1042,'',  13.8, 2, 1, 1, 1, 1.0067785, -7.9685578, 1.1, 0.9, 1.1, 0.9
  1043,'',  13.8, 2, 1, 1, 1, 1.0218132, -4.0950329, 1.1, 0.9, 1.1, 0.9
  1044,'',   115, 1, 1, 1, 1, 1.0162143, -19.492935, 1.1, 0.9, 1.1, 0.9
  1045,'',   115, 1, 1, 1, 1, 0.99849609, -23.541543, 1.1, 0.9, 1.1, 0.9
  1046,'',   115, 1, 1, 1, 1, 1.0220622, -20.817737, 1.1, 0.9, 1.1, 0.9
  1047,'',   115, 1, 1, 1, 1, 1.0090466, -19.589308, 1.1, 0.9, 1.1, 0.9
  1048,'',    18, 2, 1, 1, 1, 1.0090466, -19.589308, 1.1, 0.9, 1.1, 0.9
  1049,'',    18, 2, 1, 1, 1, 1.0090466, -19.589308, 1.1, 0.9, 1.1, 0.9
  1050,'',    18, 2, 1, 1, 1, 1, -18.043781, 1.1, 0.9, 1.1, 0.9
  1051,'',    18, 2, 1, 1, 1, 1, -17.591789, 1.1, 0.9, 1.1, 0.9
  1052,'',    18, 2, 1, 1, 1, 1.001669, -18.300907, 1.1, 0.9, 1.1, 0.9
  1053,'',   230, 2, 1, 1, 1, 1.0151893, -20.497663, 1.1, 0.9, 1.1, 0.9
  1054,'',   115, 1, 1, 1, 1, 1.0071891, -19.353323, 1.1, 0.9, 1.1, 0.9
  1055,'',   115, 1, 1, 1, 1, 1.0111058, -17.582256, 1.1, 0.9, 1.1, 0.9
  1056,'',   115, 1, 1, 1, 1, 1.015, -18.756054, 1.1, 0.9, 1.1, 0.9
  1057,'',    18, 2, 1, 1, 1, 1.015, -18.756054, 1.1, 0.9, 1.1, 0.9
  1058,'',   115, 1, 1, 1, 1, 1.0245272, -15.649208, 1.1, 0.9, 1.1, 0.9
  1059,'',    22, 2, 1, 1, 1, 1.0245272, -15.649208, 1.1, 0.9, 1.1, 0.9
  1060,'',    22, 2, 1, 1, 1, 1.0245272, -15.649208, 1.1, 0.9, 1.1, 0.9
  1061,'',   115, 1, 1, 1, 1, 1.012098, -17.238347, 1.1, 0.9, 1.1, 0.9
  1062,'',  13.8, 2, 1, 1, 1, 1.012098, -17.238347, 1.1, 0.9, 1.1, 0.9
  1063,'',  13.8, 2, 1, 1, 1, 1.012098, -17.238347, 1.1, 0.9, 1.1, 0.9
  1064,'',   115, 1, 1, 1, 1, 0.9989609, -23.777371, 1.1, 0.9, 1.1, 0.9
  1065,'',   115, 1, 1, 1, 1, 1.0061551, -8.3701028, 1.1, 0.9, 1.1, 0.9
  1066,'',  13.8, 2, 1, 1, 1, 1, -0.78855127, 1.1, 0.9, 1.1, 0.9
  1067,'',   115, 1, 1, 1, 1, 1.0039218, -8.1627789, 1.1, 0.9, 1.1, 0.9
  1068,'',   115, 1, 1, 1, 1, 0.99360504, -12.043716, 1.1, 0.9, 1.1, 0.9
  1069,'',   115, 1, 1, 1, 1, 1.0250913, -14.36197, 1.1, 0.9, 1.1, 0.9
  1070,'',  13.8, 2, 1, 1, 1, 1.04, -9.8474587, 1.1, 0.9, 1.1, 0.9
  1071,'',   115, 1, 1, 1, 1, 1.0118993, -22.377052, 1.1, 0.9, 1.1, 0.9
  1072,'',    18, 2, 1, 1, 1, 1.01, -19.573421, 1.1, 0.9, 1.1, 0.9
  1073,'',    18, 2, 1, 1, 1, 1.01, -17.719279, 1.1, 0.9, 1.1, 0.9
  1074,'',    18, 2, 1, 1, 1, 1.01, -18.304378, 1.1, 0.9, 1.1, 0.9
  1075,'',    18, 2, 1, 1, 1, 1.01, -19.118844, 1.1, 0.9, 1.1, 0.9
  1076,'',    18, 2, 1, 1, 1, 1.0118993, -22.377052, 1.1, 0.9, 1.1, 0.9
  1077,'',    18, 2, 1, 1, 1, 1.0118993, -22.377052, 1.1, 0.9, 1.1, 0.9
  1078,'',    18, 2, 1, 1, 1, 1.01, -19.277638, 1.1, 0.9, 1.1, 0.9
  1079,'',   500, 2, 1, 1, 1, 1.0486382, -26.369402, 1.1, 0.9, 1.1, 0.9
  1080,'',    18, 2, 1, 1, 1, 1.01, -19.086204, 1.1, 0.9, 1.1, 0.9
  1081,'',   230, 2, 1, 1, 1, 1.0160279, -20.809242, 1.1, 0.9, 1.1, 0.9
  1082,'',   115, 2, 1, 1, 1, 1.0151085, -13.946182, 1.1, 0.9, 1.1, 0.9
  1083,'',   115, 1, 1, 1, 1, 1.015, -17.578962, 1.1, 0.9, 1.1, 0.9
  1084,'',   115, 2, 1, 1, 1, 1.0240936, -12.516242, 1.1, 0.9, 1.1, 0.9
  1085,'',   115, 1, 1, 1, 1, 1.0121116, -19.783726, 1.1, 0.9, 1.1, 0.9
  1086,'',   115, 1, 1, 1, 1, 1.015, -21.739688, 1.1, 0.9, 1.1, 0.9
  1087,'',   115, 1, 1, 1, 1, 1.0254653, -18.106057, 1.1, 0.9, 1.1, 0.9
  1088,'',   115, 2, 1, 1, 1, 1, -11.105185, 1.1, 0.9, 1.1, 0.9
  1089,'',   115, 1, 1, 1, 1, 0.99592925, -19.360427, 1.1, 0.9, 1.1, 0.9
  1090,'',   115, 2, 1, 1, 1, 1.02, -17.333205, 1.1, 0.9, 1.1, 0.9
  1091,'',   161, 1, 1, 1, 1, 1.0274462, -21.060327, 1.1, 0.9, 1.1, 0.9
  2001,'',   161, 1, 1, 1, 1, 1.0297469, -39.870268, 1.1, 0.9, 1.1, 0.9
  2002,'',   500, 1, 1, 1, 1, 1.0307367, -39.836446, 1.1, 0.9, 1.1, 0.9
  2003,'',   161, 1, 1, 1, 1, 1.0269489, -40.831976, 1.1, 0.9, 1.1, 0.9
  2004,'',  13.8, 2, 1, 1, 1, 1.0307367, -39.836446, 1.1, 0.9, 1.1, 0.9
  2005,'',  13.8, 2, 1, 1, 1, 1.0307367, -39.836446, 1.1, 0.9, 1.1, 0.9
  2006,'',  13.8, 2, 1, 1, 1, 1.0307367, -39.836446, 1.1, 0.9, 1.1, 0.9
  2007,'',   161, 1, 1, 1, 1, 1.0282442, -39.682028, 1.1, 0.9, 1.1, 0.9
  2008,'',   161, 1, 1, 1, 1, 1.0336155, -21.471221, 1.1, 0.9, 1.1, 0.9
  2009,'',   161, 1, 1, 1, 1, 1.0169882, -29.40211, 1.1, 0.9, 1.1, 0.9
  2010,'',   161, 1, 1, 1, 1, 1.0254231, -23.529075, 1.1, 0.9, 1.1, 0.9
  2011,'',   500, 1, 1, 1, 1, 1.0411946, -21.421168, 1.1, 0.9, 1.1, 0.9
  2012,'',   161, 1, 1, 1, 1, 1.0325258, -19.658417, 1.1, 0.9, 1.1, 0.9
  2013,'',    18, 2, 1, 1, 1, 1.0331935, -20.246443, 1.1, 0.9, 1.1, 0.9
  2014,'',   161, 1, 1, 1, 1, 1.0331457, -21.922365, 1.1, 0.9, 1.1, 0.9
  2015,'',   161, 1, 1, 1, 1, 1.0160457, -35.454449, 1.1, 0.9, 1.1, 0.9
  2016,'',   161, 1, 1, 1, 1, 1.0102481, -43.264874, 1.1, 0.9, 1.1, 0.9
  2017,'',   500, 1, 1, 1, 1, 1.0254635, -21.817841, 1.1, 0.9, 1.1, 0.9
  2018,'',   161, 1, 1, 1, 1, 1.0265876, -21.07453, 1.1, 0.9, 1.1, 0.9
  2019,'',    20, 2, 1, 1, 1, 1.0254635, -21.817841, 1.1, 0.9, 1.1, 0.9
  2020,'',   161, 1, 1, 1, 1, 1.0200428, -29.777917, 1.1, 0.9, 1.1, 0.9
  2021,'',   500, 1, 1, 1, 1, 1.0312687, -38.437519, 1.1, 0.9, 1.1, 0.9
  2022,'',   161, 1, 1, 1, 1, 1.0319349, -39.251981, 1.1, 0.9, 1.1, 0.9
  2023,'',  13.8, 2, 1, 1, 1, 1.0283045, -37.970383, 1.1, 0.9, 1.1, 0.9
  2024,'',  13.8, 2, 1, 1, 1, 1.0270094, -37.771734, 1.1, 0.9, 1.1, 0.9
  2025,'',   161, 1, 1, 1, 1, 1.0194038, -29.430733, 1.1, 0.9, 1.1, 0.9
  2026,'',   161, 1, 1, 1, 1, 1.03333, -20.461063, 1.1, 0.9, 1.1, 0.9
  2027,'',   161, 1, 1, 1, 1, 1.0314381, -40.048963, 1.1, 0.9, 1.1, 0.9
  2028,'',   161, 1, 1, 1, 1, 1.0176727, -30.548271, 1.1, 0.9, 1.1, 0.9
  2029,'',   161, 1, 1, 1, 1, 1.0342554, -21.736707, 1.1, 0.9, 1.1, 0.9
  2030,'',   161, 1, 1, 1, 1, 1.0210423, -41.227528, 1.1, 0.9, 1.1, 0.9
  2031,'',   161, 1, 1, 1, 1, 1.0340124, -19.739668, 1.1, 0.9, 1.1, 0.9
  2032,'',   161, 1, 1, 1, 1, 1.0291453, -39.450053, 1.1, 0.9, 1.1, 0.9
  2033,'',   161, 1, 1, 1, 1, 1.0216359, -41.66122, 1.1, 0.9, 1.1, 0.9
  2034,'',   161, 1, 1, 1, 1, 1.0116814, -43.084862, 1.1, 0.9, 1.1, 0.9
  2035,'',   161, 1, 1, 1, 1, 1.0321688, -19.999601, 1.1, 0.9, 1.1, 0.9
  2036,'',   161, 1, 1, 1, 1, 1.0193243, -29.578245, 1.1, 0.9, 1.1, 0.9
  2037,'',   161, 1, 1, 1, 1, 1.017765, -35.034303, 1.1, 0.9, 1.1, 0.9
  2038,'',   161, 1, 1, 1, 1, 1.026074, -41.03344, 1.1, 0.9, 1.1, 0.9
  2039,'',   161, 1, 1, 1, 1, 1.0159299, -35.719175, 1.1, 0.9, 1.1, 0.9
  2040,'',   161, 1, 1, 1, 1, 1.0330942, -39.592935, 1.1, 0.9, 1.1, 0.9
  2041,'',   161, 1, 1, 1, 1, 1.0321746, -18.135535, 1.1, 0.9, 1.1, 0.9
  2042,'',    18, 2, 1, 1, 1, 1.0237741, -16.288266, 1.1, 0.9, 1.1, 0.9
  2043,'',   161, 1, 1, 1, 1, 1.0110781, -43.173268, 1.1, 0.9, 1.1, 0.9
  2044,'',   161, 1, 1, 1, 1, 1.0134179, -42.215166, 1.1, 0.9, 1.1, 0.9
  2045,'',   161, 1, 1, 1, 1, 1.019338, -29.961228, 1.1, 0.9, 1.1, 0.9
  2046,'',   161, 1, 1, 1, 1, 1.0124045, -42.960443, 1.1, 0.9, 1.1, 0.9
  2047,'',   161, 1, 1, 1, 1, 1.0243959, -41.222896, 1.1, 0.9, 1.1, 0.9
  2048,'',   161, 1, 1, 1, 1, 1.0326622, -21.141281, 1.1, 0.9, 1.1, 0.9
  2049,'',   161, 1, 1, 1, 1, 1.019302, -26.686897, 1.1, 0.9, 1.1, 0.9
  2050,'',   161, 1, 1, 1, 1, 1.0290248, -41.060273, 1.1, 0.9, 1.1, 0.9
  2051,'',   161, 1, 1, 1, 1, 1.0167899, -32.956911, 1.1, 0.9, 1.1, 0.9
  2052,'',   161, 1, 1, 1, 1, 1.0321004, -20.883167, 1.1, 0.9, 1.1, 0.9
  2053,'',   161, 1, 1, 1, 1, 1.0178648, -36.420882, 1.1, 0.9, 1.1, 0.9
  2054,'',   500, 1, 1, 1, 1, 1.0236186, -29.141402, 1.1, 0.9, 1.1, 0.9
  2055,'',   161, 1, 1, 1, 1, 1.02155, -29.435357, 1.1, 0.9, 1.1, 0.9
  2056,'',    18, 2, 1, 1, 1, 1.0236186, -29.141402, 1.1, 0.9, 1.1, 0.9
  2057,'',    18, 2, 1, 1, 1, 1.012434, -27.536681, 1.1, 0.9, 1.1, 0.9
  2058,'',   161, 1, 1, 1, 1, 1.0321229, -17.884563, 1.1, 0.9, 1.1, 0.9
  2059,'',  13.8, 2, 1, 1, 1, 1.0213038, -17.198618, 1.1, 0.9, 1.1, 0.9
  2060,'',   161, 1, 1, 1, 1, 1.0278298, -40.50559, 1.1, 0.9, 1.1, 0.9
  2061,'',   161, 1, 1, 1, 1, 1.0222842, -24.496672, 1.1, 0.9, 1.1, 0.9
  2062,'',    18, 2, 1, 1, 1, 1.02, -23.198343, 1.1, 0.9, 1.1, 0.9
  2063,'',   161, 1, 1, 1, 1, 1.0138337, -42.710354, 1.1, 0.9, 1.1, 0.9
  2064,'',   161, 1, 1, 1, 1, 1.0298393, -39.88539, 1.1, 0.9, 1.1, 0.9
  2065,'',   161, 1, 1, 1, 1, 1.0064716, -42.8866, 1.1, 0.9, 1.1, 0.9
  2066,'',   161, 1, 1, 1, 1, 1.0313033, -18.278047, 1.1, 0.9, 1.1, 0.9
  2067,'',   161, 1, 1, 1, 1, 1.0177461, -29.281033, 1.1, 0.9, 1.1, 0.9
  2068,'',   161, 1, 1, 1, 1, 1.0165759, -27.850262, 1.1, 0.9, 1.1, 0.9
  2069,'',   161, 1, 1, 1, 1, 1.015, -42.721159, 1.1, 0.9, 1.1, 0.9
  2070,'',   161, 1, 1, 1, 1, 1.0172286, -27.377818, 1.1, 0.9, 1.1, 0.9
  2071,'',    18, 2, 1, 1, 1, 1.0044623, -23.803897, 1.1, 0.9, 1.1, 0.9
  2072,'',   161, 1, 1, 1, 1, 1.0194564, -42.002135, 1.1, 0.9, 1.1, 0.9
  2073,'',   161, 1, 1, 1, 1, 1.0299217, -16.811012, 1.1, 0.9, 1.1, 0.9
  2074,'',   115, 1, 1, 1, 1, 1.0197025, -15.573035, 1.1, 0.9, 1.1, 0.9
  2075,'',   115, 1, 1, 1, 1, 1.0197025, -15.573035, 1.1, 0.9, 1.1, 0.9
  2076,'',    24, 2, 1, 1, 1, 1.0348801, -16.306559, 1.1, 0.9, 1.1, 0.9
  2077,'',   161, 1, 1, 1, 1, 1.0188145, -34.633066, 1.1, 0.9, 1.1, 0.9
  2078,'',  13.8, 2, 1, 1, 1, 1.02, -33.937801, 1.1, 0.9, 1.1, 0.9
  2079,'',   161, 1, 1, 1, 1, 1.0304238, -22.637535, 1.1, 0.9, 1.1, 0.9
  2080,'',   161, 1, 1, 1, 1, 1.0174566, -34.075188, 1.1, 0.9, 1.1, 0.9
  2081,'',   161, 1, 1, 1, 1, 1.0241745, -41.369291, 1.1, 0.9, 1.1, 0.9
  2082,'',   161, 1, 1, 1, 1, 1.0179041, -29.627186, 1.1, 0.9, 1.1, 0.9
  2083,'',    20, 2, 1, 1, 1, 1.02, -29.151882, 1.1, 0.9, 1.1, 0.9
  2084,'',    20, 2, 1, 1, 1, 1.0179041, -29.627186, 1.1, 0.9, 1.1, 0.9
  2085,'',    20, 2, 1, 1, 1, 1.0179041, -29.627186, 1.1, 0.9, 1.1, 0.9
  2086,'',   161, 1, 1, 1, 1, 1.0168163, -35.101631, 1.1, 0.9, 1.1, 0.9
  2087,'',   161, 1, 1, 1, 1, 1.0327161, -18.317751, 1.1, 0.9, 1.1, 0.9
  2088,'',   161, 1, 1, 1, 1, 1.0164341, -27.642505, 1.1, 0.9, 1.1, 0.9
  2089,'',    24, 2, 1, 1, 1, 1.0046775, -26.863238, 1.1, 0.9, 1.1, 0.9
  2090,'',   161, 1, 1, 1, 1, 1.0331348, -40.281138, 1.1, 0.9, 1.1, 0.9
  2091,'',   161, 1, 1, 1, 1, 1.0300289, -22.018741, 1.1, 0.9, 1.1, 0.9
  2092,'',   161, 1, 1, 1, 1, 1.018773, -42.004819, 1.1, 0.9, 1.1, 0.9
  2093,'',   161, 1, 1, 1, 1, 1.0302173, -20.328307, 1.1, 0.9, 1.1, 0.9
  2094,'',  13.8, 2, 1, 1, 1, 1.0302173, -20.328307, 1.1, 0.9, 1.1, 0.9
  2095,'',  13.8, 2, 1, 1, 1, 1.0302173, -20.328307, 1.1, 0.9, 1.1, 0.9
  2096,'',   500, 1, 1, 1, 1, 1, -20.08199, 1.1, 0.9, 1.1, 0.9
  2097,'',   230, 1, 1, 1, 1, 1.003552, -19.73435, 1.1, 0.9, 1.1, 0.9
  2098,'',   161, 1, 1, 1, 1, 1.0244428, -20.820741, 1.1, 0.9, 1.1, 0.9
  2099,'',    18, 2, 1, 1, 1, 1.0007418, -20.070412, 1.1, 0.9, 1.1, 0.9
  2100,'',    18, 2, 1, 1, 1, 1.0134121, -19.880045, 1.1, 0.9, 1.1, 0.9
  2101,'',   500, 1, 1, 1, 1, 1.0296731, -40.08616, 1.1, 0.9, 1.1, 0.9
  2102,'',   161, 1, 1, 1, 1, 1.0265527, -40.796974, 1.1, 0.9, 1.1, 0.9
  2103,'',    20, 2, 1, 1, 1, 1.0296731, -40.08616, 1.1, 0.9, 1.1, 0.9
  2104,'',    20, 2, 1, 1, 1, 1.0296731, -40.08616, 1.1, 0.9, 1.1, 0.9
  2105,'',    20, 2, 1, 1, 1, 1.0296731, -40.08616, 1.1, 0.9, 1.1, 0.9
  2106,'',   161, 1, 1, 1, 1, 1.0192365, -41.834864, 1.1, 0.9, 1.1, 0.9
  2107,'',   161, 1, 1, 1, 1, 1.0239444, -41.125294, 1.1, 0.9, 1.1, 0.9
  2108,'',   161, 1, 1, 1, 1, 1.029006, -28.679026, 1.1, 0.9, 1.1, 0.9
  2109,'',   161, 1, 1, 1, 1, 1.0159548, -30.031498, 1.1, 0.9, 1.1, 0.9
...
0 / END OF BUS DATA, BEGIN LOAD DATA
1001, '1', 1, 1, 1, 14.37, 4.071, 0, 0, 0, 0, 1, 1, 0
1002, '1', 1, 1, 1, 10.658, 3.02, 0, 0, 0, 0, 1, 1, 0
1007, '1', 1, 1, 1, 4.846, 1.373, 0, 0, 0, 0, 1, 1, 0
1012, '1', 1, 1, 1, 2.064, 0.585, 0, 0, 0, 0, 1, 1, 0
1013, '1', 1, 1, 1, 20.21, 5.726, 0, 0, 0, 0, 1, 1, 0
1014, '1', 1, 1, 1, 1.535, 0.435, 0, 0, 0, 0, 1, 1, 0
1015, '1', 1, 1, 1, 5.192, 1.471, 0, 0, 0, 0, 1, 1, 0
1016, '1', 1, 1, 1, 1.998, 0.566, 0, 0, 0, 0, 1, 1, 0
1017, '1', 1, 1, 1, 12.685, 3.594, 0, 0, 0, 0, 1, 1, 0
1018, '1', 1, 1, 1, 0.048, 0.014, 0, 0, 0, 0, 1, 1, 0
1019, '1', 1, 1, 1, 42.717, 12.103, 0, 0, 0, 0, 1, 1, 0
1024, '1', 1, 1, 1, 43.59, 12.35, 0, 0, 0, 0, 1, 1, 0
1027, '1', 1, 1, 1, 69.985, 19.829, 0, 0, 0, 0, 1, 1, 0
1028, '1', 1, 1, 1, 6.925, 1.962, 0, 0, 0, 0, 1, 1, 0
1029, '1', 1, 1, 1, 57.52, 16.297, 0, 0, 0, 0, 1, 1, 0
1030, '1', 1, 1, 1, 17.029, 4.825, 0, 0, 0, 0, 1, 1, 0
1031, '1', 1, 1, 1, 6.393, 1.811, 0, 0, 0, 0, 1, 1, 0
1036, '1', 1, 1, 1, 9.401, 2.663, 0, 0, 0, 0, 1, 1, 0
1037, '1', 1, 1, 1, 70.694, 20.03, 0, 0, 0, 0, 1, 1, 0
1040, '1', 1, 1, 1, 30.672, 8.691, 0, 0, 0, 0, 1, 1, 0
1044, '1', 1, 1, 1, 10.152, 2.876, 0, 0, 0, 0, 1, 1, 0
1045, '1', 1, 1, 1, 68.153, 19.31, 0, 0, 0, 0, 1, 1, 0
1046, '1', 1, 1, 1, 7.665, 2.172, 0, 0, 0, 0, 1, 1, 0
1054, '1', 1, 1, 1, 10.364, 2.937, 0, 0, 0, 0, 1, 1, 0
1055, '1', 1, 1, 1, 2.751, 0.779, 0, 0, 0, 0, 1, 1, 0
1058, '1', 1, 1, 1, 9.303, 2.637, 0, 0, 0, 0, 1, 1, 0
1064, '1', 1, 1, 1, 85.577, 24.246, 0, 0, 0, 0, 1, 1, 0
1067, '1', 1, 1, 1, 70.219, 19.895, 0, 0, 0, 0, 1, 1, 0
1068, '1', 1, 1, 1, 41.076, 11.638, 0, 0, 0, 0, 1, 1, 0
1071, '1', 1, 1, 1, 63.245, 17.919, 0, 0, 0, 0, 1, 1, 0
1083, '1', 1, 1, 1, 27.621, 7.826, 0, 0, 0, 0, 1, 1, 0
1085, '1', 1, 1, 1, 14.726, 4.172, 0, 0, 0, 0, 1, 1, 0
1086, '1', 1, 1, 1, 27.432, 7.772, 0, 0, 0, 0, 1, 1, 0
1087, '1', 1, 1, 1, 0.629, 0.178, 0, 0, 0, 0, 1, 1, 0
1089, '1', 1, 1, 1, 28.078, 7.955, 0, 0, 0, 0, 1, 1, 0
1091, '1', 1, 1, 1, 8.036, 2.277, 0, 0, 0, 0, 1, 1, 0
2001, '1', 1, 1, 1, 24.001, 6.8, 0, 0, 0, 0, 1, 1, 0
2007, '1', 1, 1, 1, 4.735, 1.342, 0, 0, 0, 0, 1, 1, 0
2008, '1', 1, 1, 1, 4.001, 1.134, 0, 0, 0, 0, 1, 1, 0
2009, '1', 1, 1, 1, 19.424, 5.503, 0, 0, 0, 0, 1, 1, 0
2010, '1', 1, 1, 1, 28.193, 7.989, 0, 0, 0, 0, 1, 1, 0
2014, '1', 1, 1, 1, 12.621, 3.576, 0, 0, 0, 0, 1, 1, 0
2015, '1', 1, 1, 1, 2.326, 0.659, 0, 0, 0, 0, 1, 1, 0
2016, '1', 1, 1, 1, 34.379, 9.741, 0, 0, 0, 0, 1, 1, 0
2020, '1', 1, 1, 1, 23.81, 6.746, 0, 0, 0, 0, 1, 1, 0
2022, '1', 1, 1, 1, 5.74, 1.626, 0, 0, 0, 0, 1, 1, 0
2025, '1', 1, 1, 1, 19.663, 5.571, 0, 0, 0, 0, 1, 1, 0
2026, '1', 1, 1, 1, 9.217, 2.611, 0, 0, 0, 0, 1, 1, 0
2027, '1', 1, 1, 1, 1.764, 0.5, 0, 0, 0, 0, 1, 1, 0
2028, '1', 1, 1, 1, 7.067, 2.002, 0, 0, 0, 0, 1, 1, 0
2029, '1', 1, 1, 1, 1.589, 0.45, 0, 0, 0, 0, 1, 1, 0
2030, '1', 1, 1, 1, 23.399, 6.63, 0, 0, 0, 0, 1, 1, 0
2031, '1', 1, 1, 1, 2.861, 0.811, 0, 0, 0, 0, 1, 1, 0
2032, '1', 1, 1, 1, 1.665, 0.472, 0, 0, 0, 0, 1, 1, 0
2033, '1', 1, 1, 1, 6.736, 1.908, 0, 0, 0, 0, 1, 1, 0
2034, '1', 1, 1, 1, 2.65, 0.751, 0, 0, 0, 0, 1, 1, 0
2035, '1', 1, 1, 1, 2.324, 0.658, 0, 0, 0, 0, 1, 1, 0
2036, '1', 1, 1, 1, 20.64, 5.848, 0, 0, 0, 0, 1, 1, 0
2037, '1', 1, 1, 1, 1.737, 0.492, 0, 0, 0, 0, 1, 1, 0
2038, '1', 1, 1, 1, 1.292, 0.366, 0, 0, 0, 0, 1, 1, 0
2039, '1', 1, 1, 1, 2.759, 0.782, 0, 0, 0, 0, 1, 1, 0
2040, '1', 1, 1, 1, 7.893, 2.236, 0, 0, 0, 0, 1, 1, 0
2043, '1', 1, 1, 1, 2.102, 0.596, 0, 0, 0, 0, 1, 1, 0
2044, '1', 1, 1, 1, 13.602, 3.854, 0, 0, 0, 0, 1, 1, 0
2045, '1', 1, 1, 1, 11.219, 3.179, 0, 0, 0, 0, 1, 1, 0
2046, '1', 1, 1, 1, 10.986, 3.113, 0, 0, 0, 0, 1, 1, 0
2047, '1', 1, 1, 1, 7.422, 2.103, 0, 0, 0, 0, 1, 1, 0
2048, '1', 1, 1, 1, 3.185, 0.902, 0, 0, 0, 0, 1, 1, 0
2049, '1', 1, 1, 1, 5.742, 1.626, 0, 0, 0, 0, 1, 1, 0
2050, '1', 1, 1, 1, 1.815, 0.514, 0, 0, 0, 0, 1, 1, 0
2051, '1', 1, 1, 1, 8.859, 2.51, 0, 0, 0, 0, 1, 1, 0
2052, '1', 1, 1, 1, 12.327, 3.493, 0, 0, 0, 0, 1, 1, 0
2053, '1', 1, 1, 1, 14.459, 4.097, 0, 0, 0, 0, 1, 1, 0
2055, '1', 1, 1, 1, 24.627, 6.978, 0, 0, 0, 0, 1, 1, 0
2060, '1', 1, 1, 1, 1.884, 0.534, 0, 0, 0, 0, 1, 1, 0
2063, '1', 1, 1, 1, 32.567, 9.227, 0, 0, 0, 0, 1, 1, 0
2064, '1', 1, 1, 1, 4.986, 1.413, 0, 0, 0, 0, 1, 1, 0
2065, '1', 1, 1, 1, 38.892, 11.019, 0, 0, 0, 0, 1, 1, 0
2066, '1', 1, 1, 1, 3.53, 1, 0, 0, 0, 0, 1, 1, 0
2067, '1', 1, 1, 1, 26.785, 7.589, 0, 0, 0, 0, 1, 1, 0
2068, '1', 1, 1, 1, 2.859, 0.81, 0, 0, 0, 0, 1, 1, 0
2069, '1', 1, 1, 1, 10.881, 3.083, 0, 0, 0, 0, 1, 1, 0
2072, '1', 1, 1, 1, 4.817, 1.365, 0, 0, 0, 0, 1, 1, 0
2079, '1', 1, 1, 1, 2.223, 0.63, 0, 0, 0, 0, 1, 1, 0
2080, '1', 1, 1, 1, 8.404, 2.381, 0, 0, 0, 0, 1, 1, 0
2081, '1', 1, 1, 1, 2.216, 0.628, 0, 0, 0, 0, 1, 1, 0
2082, '1', 1, 1, 1, 29.298, 8.301, 0, 0, 0, 0, 1, 1, 0
2086, '1', 1, 1, 1, 1.088, 0.308, 0, 0, 0, 0, 1, 1, 0
2087, '1', 1, 1, 1, 3.919, 1.11, 0, 0, 0, 0, 1, 1, 0
2090, '1', 1, 1, 1, 1.203, 0.341, 0, 0, 0, 0, 1, 1, 0
2091, '1', 1, 1, 1, 8.46, 2.397, 0, 0, 0, 0, 1, 1, 0
2092, '1', 1, 1, 1, 11.965, 3.39, 0, 0, 0, 0, 1, 1, 0
2106, '1', 1, 1, 1, 7.149, 2.025, 0, 0, 0, 0, 1, 1, 0
2107, '1', 1, 1, 1, 36.803, 10.427, 0, 0, 0, 0, 1, 1, 0
2108, '1', 1, 1, 1, 1.065, 0.302, 0, 0, 0, 0, 1, 1, 0
2109, '1', 1, 1, 1, 16.781, 4.755, 0, 0, 0, 0, 1, 1, 0
2110, '1', 1, 1, 1, 4.263, 1.208, 0, 0, 0, 0, 1, 1, 0
2111, '1', 1, 1, 1, 6.925, 1.962, 0, 0, 0, 0, 1, 1, 0
2112, '1', 1, 1, 1, 2.254, 0.639, 0, 0, 0, 0, 1, 1, 0
2114, '1', 1, 1, 1, 35.128, 9.953, 0, 0, 0, 0, 1, 1, 0
2121, '1', 1, 1, 1, 1.158, 0.328, 0, 0, 0, 0, 1, 1, 0
2122, '1', 1, 1, 1, 3.337, 0.945, 0, 0, 0, 0, 1, 1, 0
2124, '1', 1, 1, 1, 10.564, 2.993, 0, 0, 0, 0, 1, 1, 0
2125, '1', 1, 1, 1, 2.013, 0.57, 0, 0, 0, 0, 1, 1, 0
2126, '1', 1, 1, 1, 7.065, 2.002, 0, 0, 0, 0, 1, 1, 0
2129, '1', 1, 1, 1, 3.292, 0.933, 0, 0, 0, 0, 1, 1, 0
2132, '1', 1, 1, 1, 5.926, 1.679, 0, 0, 0, 0, 1, 1, 0
2133, '1', 1, 1, 1, 2.819, 0.799, 0, 0, 0, 0, 1, 1, 0
3002, '1', 1, 1, 1, 54.634, 15.48, 0, 0, 0, 0, 1, 1, 0
3005, '1', 1, 1, 1, 3.553, 1.007, 0, 0, 0, 0, 1, 1, 0
3006, '1', 1, 1, 1, 3.557, 1.008, 0, 0, 0, 0, 1, 1, 0
3007, '1', 1, 1, 1, 7.244, 2.052, 0, 0, 0, 0, 1, 1, 0
3008, '1', 1, 1, 1, 9.59, 2.717, 0, 0, 0, 0, 1, 1, 0
3009, '1', 1, 1, 1, 6.07, 1.72, 0, 0, 0, 0, 1, 1, 0
3010, '1', 1, 1, 1, 2.261, 0.641, 0, 0, 0, 0, 1, 1, 0
3011, '1', 1, 1, 1, 13.137, 3.722, 0, 0, 0, 0, 1, 1, 0
3012, '1', 1, 1, 1, 0.273, 0.077, 0, 0, 0, 0, 1, 1, 0
3013, '1', 1, 1, 1, 31.251, 8.854, 0, 0, 0, 0, 1, 1, 0
3014, '1', 1, 1, 1, 10.651, 3.018, 0, 0, 0, 0, 1, 1, 0
3015, '1', 1, 1, 1, 2.597, 0.736, 0, 0, 0, 0, 1, 1, 0
3021, '1', 1, 1, 1, 0.939, 0.266, 0, 0, 0, 0, 1, 1, 0
3022, '1', 1, 1, 1, 11.904, 3.373, 0, 0, 0, 0, 1, 1, 0
3023, '1', 1, 1, 1, 5.038, 1.427, 0, 0, 0, 0, 1, 1, 0
3024, '1', 1, 1, 1, 4.904, 1.39, 0, 0, 0, 0, 1, 1, 0
3025, '1', 1, 1, 1, 6.619, 1.875, 0, 0, 0, 0, 1, 1, 0
3029, '1', 1, 1, 1, 2.356, 0.667, 0, 0, 0, 0, 1, 1, 0
3030, '1', 1, 1, 1, 62.796, 17.792, 0, 0, 0, 0, 1, 1, 0
3031, '1', 1, 1, 1, 7.132, 2.021, 0, 0, 0, 0, 1, 1, 0
3032, '1', 1, 1, 1, 35.272, 9.994, 0, 0, 0, 0, 1, 1, 0
3035, '1', 1, 1, 1, 1.677, 0.475, 0, 0, 0, 0, 1, 1, 0
3036, '1', 1, 1, 1, 2.809, 0.796, 0, 0, 0, 0, 1, 1, 0
3040, '1', 1, 1, 1, 7.071, 2.003, 0, 0, 0, 0, 1, 1, 0
3042, '1', 1, 1, 1, 4.238, 1.201, 0, 0, 0, 0, 1, 1, 0
3049, '1', 1, 1, 1, 5.124, 1.452, 0, 0, 0, 0, 1, 1, 0
3051, '1', 1, 1, 1, 70.333, 19.928, 0, 0, 0, 0, 1, 1, 0
3052, '1', 1, 1, 1, 3.909, 1.108, 0, 0, 0, 0, 1, 1, 0
3066, '1', 1, 1, 1, 10.667, 3.022, 0, 0, 0, 0, 1, 1, 0
3069, '1', 1, 1, 1, 1.846, 0.523, 0, 0, 0, 0, 1, 1, 0
3072, '1', 1, 1, 1, 2.897, 0.821, 0, 0, 0, 0, 1, 1, 0
3075, '1', 1, 1, 1, 5.898, 1.671, 0, 0, 0, 0, 1, 1, 0
3076, '1', 1, 1, 1, 5.225, 1.48, 0, 0, 0, 0, 1, 1, 0
3077, '1', 1, 1, 1, 33.235, 9.417, 0, 0, 0, 0, 1, 1, 0
3093, '1', 1, 1, 1, 2.443, 0.692, 0, 0, 0, 0, 1, 1, 0
3099, '1', 1, 1, 1, 5.847, 1.657, 0, 0, 0, 0, 1, 1, 0
3100, '1', 1, 1, 1, 4.127, 1.169, 0, 0, 0, 0, 1, 1, 0
3101, '1', 1, 1, 1, 4.566, 1.293, 0, 0, 0, 0, 1, 1, 0
3102, '1', 1, 1, 1, 36.43, 10.322, 0, 0, 0, 0, 1, 1, 0
3103, '1', 1, 1, 1, 19.033, 5.393, 0, 0, 0, 0, 1, 1, 0
3107, '1', 1, 1, 1, 7.197, 2.039, 0, 0, 0, 0, 1, 1, 0
3108, '1', 1, 1, 1, 11.387, 3.226, 0, 0, 0, 0, 1, 1, 0
3114, '1', 1, 1, 1, 47.589, 13.484, 0, 0, 0, 0, 1, 1, 0
3115, '1', 1, 1, 1, 4.635, 1.313, 0, 0, 0, 0, 1, 1, 0
3123, '1', 1, 1, 1, 31.982, 9.061, 0, 0, 0, 0, 1, 1, 0
3124, '1', 1, 1, 1, 31.242, 8.852, 0, 0, 0, 0, 1, 1, 0
3125, '1', 1, 1, 1, 44.176, 12.517, 0, 0, 0, 0, 1, 1, 0
3126, '1', 1, 1, 1, 4.82, 1.366, 0, 0, 0, 0, 1, 1, 0
3128, '1', 1, 1, 1, 1.365, 0.387, 0, 0, 0, 0, 1, 1, 0
3130, '1', 1, 1, 1, 44.61, 12.639, 0, 0, 0, 0, 1, 1, 0
3132, '1', 1, 1, 1, 4.63, 1.312, 0, 0, 0, 0, 1, 1, 0
3136, '1', 1, 1, 1, 22.731, 6.44, 0, 0, 0, 0, 1, 1, 0
3138, '1', 1, 1, 1, 5.299, 1.502, 0, 0, 0, 0, 1, 1, 0
3139, '1', 1, 1, 1, 7.22, 2.046, 0, 0, 0, 0, 1, 1, 0
3140, '1', 1, 1, 1, 0.107, 0.03, 0, 0, 0, 0, 1, 1, 0
3142, '1', 1, 1, 1, 3.421, 0.969, 0, 0, 0, 0, 1, 1, 0
3143, '1', 1, 1, 1, 2.785, 0.789, 0, 0, 0, 0, 1, 1, 0
3144, '1', 1, 1, 1, 2.69, 0.762, 0, 0, 0, 0, 1, 1, 0
3145, '1', 1, 1, 1, 1.423, 0.403, 0, 0, 0, 0, 1, 1, 0
3146, '1', 1, 1, 1, 5.827, 1.651, 0, 0, 0, 0, 1, 1, 0
3147, '1', 1, 1, 1, 16.826, 4.767, 0, 0, 0, 0, 1, 1, 0
4002, '1', 1, 1, 1, 0.525, 0.149, 0, 0, 0, 0, 1, 1, 0
4003, '1', 1, 1, 1, 66.342, 18.797, 0, 0, 0, 0, 1, 1, 0
4005, '1', 1, 1, 1, 85.545, 24.238, 0, 0, 0, 0, 1, 1, 0
4006, '1', 1, 1, 1, 1.435, 0.407, 0, 0, 0, 0, 1, 1, 0
4007, '1', 1, 1, 1, 95.718, 27.12, 0, 0, 0, 0, 1, 1, 0
4008, '1', 1, 1, 1, 16.935, 4.798, 0, 0, 0, 0, 1, 1, 0
4011, '1', 1, 1, 1, 8.365, 2.37, 0, 0, 0, 0, 1, 1, 0
4012, '1', 1, 1, 1, 7.161, 2.029, 0, 0, 0, 0, 1, 1, 0
4013, '1', 1, 1, 1, 48.13, 13.637, 0, 0, 0, 0, 1, 1, 0
4015, '1', 1, 1, 1, 83.288, 23.598, 0, 0, 0, 0, 1, 1, 0
4016, '1', 1, 1, 1, 3.255, 0.922, 0, 0, 0, 0, 1, 1, 0
4017, '1', 1, 1, 1, 46.678, 13.225, 0, 0, 0, 0, 1, 1, 0
4018, '1', 1, 1, 1, 3.72, 1.054, 0, 0, 0, 0, 1, 1, 0
4019, '1', 1, 1, 1, 70.791, 20.058, 0, 0, 0, 0, 1, 1, 0
4020, '1', 1, 1, 1, 61.401, 17.397, 0, 0, 0, 0, 1, 1, 0
4021, '1', 1, 1, 1, 16.663, 4.721, 0, 0, 0, 0, 1, 1, 0
4022, '1', 1, 1, 1, 2.9, 0.822, 0, 0, 0, 0, 1, 1, 0
4023, '1', 1, 1, 1, 2.639, 0.748, 0, 0, 0, 0, 1, 1, 0
4027, '1', 1, 1, 1, 33.938, 9.616, 0, 0, 0, 0, 1, 1, 0
4031, '1', 1, 1, 1, 1.432, 0.406, 0, 0, 0, 0, 1, 1, 0
4032, '1', 1, 1, 1, 47.63, 13.495, 0, 0, 0, 0, 1, 1, 0
4033, '1', 1, 1, 1, 65.798, 18.643, 0, 0, 0, 0, 1, 1, 0
4034, '1', 1, 1, 1, 19.618, 5.558, 0, 0, 0, 0, 1, 1, 0
4035, '1', 1, 1, 1, 41.257, 11.689, 0, 0, 0, 0, 1, 1, 0
4036, '1', 1, 1, 1, 18.278, 5.179, 0, 0, 0, 0, 1, 1, 0
4037, '1', 1, 1, 1, 14.969, 4.241, 0, 0, 0, 0, 1, 1, 0
4038, '1', 1, 1, 1, 43.416, 12.302, 0, 0, 0, 0, 1, 1, 0
4040, '1', 1, 1, 1, 117.61, 33.323, 0, 0, 0, 0, 1, 1, 0
4042, '1', 1, 1, 1, 112.145, 31.775, 0, 0, 0, 0, 1, 1, 0
4043, '1', 1, 1, 1, 1.29, 0.365, 0, 0, 0, 0, 1, 1, 0
4048, '1', 1, 1, 1, 6.83, 1.935, 0, 0, 0, 0, 1, 1, 0
...
0 / END OF LOAD DATA, BEGIN FIXED SHUNT DATA
0 / END OF FIXED SHUNT DATA, BEGIN GENERATOR DATA
1004, '1', 33.8, -30.38, 44.94, -30.38, 1.0179921, 0, 0, 0, 1.0, 0, 0, 1, 1, 1, 33.8, 0, 1, 1, 0, 1, 0, 1, 0, 1, 0, 1
1006, '1', 22.7, -4.94, 7.31, -4.94, 1.0025028, 0, 0, 0, 1.0, 0, 0, 1, 1, 1, 22.7, 0, 1, 1, 0, 1, 0, 1, 0, 1, 0, 1
1009, '1', 1, -11.88, 17.57, -11.88, 1.0072424, 0, 0, 0, 1.0, 0, 0, 1, 1, 1, 1, 0, 1, 1, 0, 1, 0, 1, 0, 1, 0, 1
1011, '1', 0, 0, 0, 0, 1.0499433, 0, 0, 0, 1.0, 0, 0, 1, 1, 1, 0, 0, 1, 1, 0, 1, 0, 1, 0, 1, 0, 1
1021, '1', 99.9, -28.73, 42.49, -28.73, 1, 0, 0, 0, 1.0, 0, 0, 1, 1, 1, 99.9, 0, 1, 1, 0, 1, 0, 1, 0, 1, 0, 1
1023, '1', 1.4, -25.92, 38.34, -25.92, 1.01, 0, 0, 0, 1.0, 0, 0, 1, 1, 1, 1.4, 0, 1, 1, 0, 1, 0, 1, 0, 1, 0, 1
1026, '1', 91.1, -17.88, 26.45, -17.88, 1.03, 0, 0, 0, 1.0, 0, 0, 1, 1, 1, 91.1, 0, 1, 1, 0, 1, 0, 1, 0, 1, 0, 1
1033, '1', 0, -40.03, 59.21, -40.03, 1.008405, 0, 0, 0, 1.0, 0, 0, 1, 1, 1, 0, 0, 1, 1, 0, 1, 0, 1, 0, 1, 0, 1
1035, '1', 71, -12.96, 19.17, -12.96, 1, 0, 0, 0, 1.0, 0, 0, 1, 1, 1, 71, 0, 1, 1, 0, 1, 0, 1, 0, 1, 0, 1
1039, '1', 19.6, -21.24, 31.42, -21.24, 1, 0, 0, 0, 1.0, 0, 0, 1, 1, 1, 19.6, 0, 1, 1, 0, 1, 0, 1, 0, 1, 0, 1
1042, '1', 107.571, 23.652, 25.96, -17.55, 1.007603, 0, 0, 0, 1.0, 0, 0, 1, 0, 1, 112.9, 0, 1, 1, 0, 1, 0, 1, 0, 1, 0, 1
1043, '1', 54.4, -8.47, 12.52, -8.47, 1.0229358, 0, 0, 0, 1.0, 0, 0, 1, 1, 1, 54.4, 0, 1, 1, 0, 1, 0, 1, 0, 1, 0, 1
1048, '1', 97.56, -16.27, 165.53, -36.1, 1.0091144, 0, 0, 0, 1.0, 0, 0, 1, 0, 1, 325.2, 97.56, 1, 1, 0, 1, 0, 1, 0, 1, 0, 1
1049, '1', 119.663, 3.735, 165.53, -36.1, 1.0091144, 0, 0, 0, 1.0, 0, 0, 1, 0, 1, 325.2, 97.56, 1, 1, 0, 1, 0, 1, 0, 1, 0, 1
1050, '1', 27.075028, -9.92, 45.5, -9.92, 1, 0, 0, 0, 1.0, 0, 0, 1, 1, 1, 89.4, 26.82, 1, 1, 0, 1, 0, 1, 0, 1, 0, 1
1051, '1', 27.075028, -9.92, 45.5, -9.92, 1, 0, 0, 0, 1.0, 0, 0, 1, 1, 1, 89.4, 26.82, 1, 1, 0, 1, 0, 1, 0, 1, 0, 1
1052, '1', 27.075028, -9.92, 45.5, -9.92, 1.001669, 0, 0, 0, 1.0, 0, 0, 1, 1, 1, 89.4, 26.82, 1, 1, 0, 1, 0, 1, 0, 1, 0, 1
1053, '1', 53.64, -19.85, 91.01, -19.85, 1.0151717, 0, 0, 0, 1.0, 0, 0, 1, 0, 1, 178.8, 53.64, 1, 1, 0, 1, 0, 1, 0, 1, 0, 1
1057, '1', 57.652, -10.647, 25.56, -17.28, 1.015, 0, 0, 0, 1.0, 0, 0, 1, 0, 1, 57.7, 0, 1, 1, 0, 1, 0, 1, 0, 1, 0, 1
1059, '1', 5.294, 2.85, 2.85, -0.62, 1.0246552, 0, 0, 0, 1.0, 0, 0, 1, 0, 1, 5.6, 1.68, 1, 1, 0, 1, 0, 1, 0, 1, 0, 1
1060, '1', 0.6, 1.02, 1.02, -0.22, 1.0246552, 0, 0, 0, 1.0, 0, 0, 1, 0, 1, 2, 0.6, 1, 1, 0, 1, 0, 1, 0, 1, 0, 1
1062, '1', -0.006, 0, 0, 0, 1.012389, 0, 0, 0, 1.0, 0, 0, 1, 0, 1, 1.5, 0.45, 1, 1, 0, 1, 0, 1, 0, 1, 0, 1
1063, '1', 81.116, 0, 0, 0, 1.012389, 0, 0, 0, 1.0, 0, 0, 1, 0, 1, 230, 69, 1, 1, 0, 1, 0, 1, 0, 1, 0, 1
1066, '1', 107.7, -20.52, 30.35, -20.52, 1, 0, 0, 0, 1.0, 0, 0, 1, 1, 1, 107.7, 0, 1, 1, 0, 1, 0, 1, 0, 1, 0, 1
1070, '1', 120.8, -23.11, 34.19, -23.11, 1.04, 0, 0, 0, 1.0, 0, 0, 1, 1, 1, 120.8, 0, 1, 1, 0, 1, 0, 1, 0, 1, 0, 1
1072, '1', 58.188082, -21.33, 97.8, -21.33, 1.01, 0, 0, 0, 1.0, 0, 0, 1, 1, 1, 192.13, 57.64, 1, 1, 0, 1, 0, 1, 0, 1, 0, 1
1073, '1', 58.188082, -21.33, 97.8, -21.33, 1.01, 0, 0, 0, 1.0, 0, 0, 1, 1, 1, 192.13, 57.64, 1, 1, 0, 1, 0, 1, 0, 1, 0, 1
1074, '1', 58.188082, -21.33, 97.8, -21.33, 1.01, 0, 0, 0, 1.0, 0, 0, 1, 1, 1, 192.13, 57.64, 1, 1, 0, 1, 0, 1, 0, 1, 0, 1
1075, '1', 58.188082, -21.33, 97.8, -21.33, 1.01, 0, 0, 0, 1.0, 0, 0, 1, 1, 1, 192.13, 57.64, 1, 1, 0, 1, 0, 1, 0, 1, 0, 1
1076, '1', 57.64, -3.417, 97.8, -21.33, 1.0121971, 0, 0, 0, 1.0, 0, 0, 1, 0, 1, 192.13, 57.64, 1, 1, 0, 1, 0, 1, 0, 1, 0, 1
1077, '1', 57.64, -2.153, 97.8, -21.33, 1.0121971, 0, 0, 0, 1.0, 0, 0, 1, 0, 1, 192.13, 57.64, 1, 1, 0, 1, 0, 1, 0, 1, 0, 1
1078, '1', 28.922429, -10.6, 48.61, -10.6, 1.01, 0, 0, 0, 1.0, 0, 0, 1, 1, 1, 95.5, 28.65, 1, 1, 0, 1, 0, 1, 0, 1, 0, 1
1079, '1', 28.922429, -10.6, 48.61, -10.6, 1.0486382, 0, 0, 0, 1.0, 0, 0, 1, 1, 1, 95.5, 28.65, 1, 1, 0, 1, 0, 1, 0, 1, 0, 1
1080, '1', 28.922429, -10.6, 48.61, -10.6, 1.01, 0, 0, 0, 1.0, 0, 0, 1, 1, 1, 95.5, 28.65, 1, 1, 0, 1, 0, 1, 0, 1, 0, 1
1081, '1', 85.95, -31.8, 145.83, -31.8, 1.0160279, 0, 0, 0, 1.0, 0, 0, 1, 0, 1, 286.5, 85.95, 1, 1, 0, 1, 0, 1, 0, 1, 0, 1
1082, '1', 77.9, -21.6, 31.95, -21.6, 1.0151085, 0, 0, 0, 1.0, 0, 0, 1, 1, 1, 77.9, 0, 1, 1, 0, 1, 0, 1, 0, 1, 0, 1
1084, '1', 85.6, -16.63, 24.6, -16.63, 1.0252406, 0, 0, 0, 1.0, 0, 0, 1, 1, 1, 85.6, 0, 1, 1, 0, 1, 0, 1, 0, 1, 0, 1
1088, '1', 59.2, -10.8, 15.97, -10.8, 1, 0, 0, 0, 1.0, 0, 0, 1, 1, 1, 59.2, 0, 1, 1, 0, 1, 0, 1, 0, 1, 0, 1
1090, '1', 120.2, -21.96, 32.48, -21.96, 1.02, 0, 0, 0, 1.0, 0, 0, 1, 1, 1, 120.2, 0, 1, 1, 0, 1, 0, 1, 0, 1, 0, 1
1090, '2', 28.4, -5.18, 7.67, -5.18, 1.02, 0, 0, 0, 1.0, 0, 0, 1, 1, 1, 28.4, 0, 1, 1, 0, 1, 0, 1, 0, 1, 0, 1
2004, '1', 0, 0, 199.43, -43.49, 1.0307359, 0, 0, 0, 1.0, 0, 0, 1, 0, 1, 391.8, 117.54, 1, 1, 0, 1, 0, 1, 0, 1, 0, 1
2005, '1', 0, 0, 199.43, -43.49, 1.0307359, 0, 0, 0, 1.0, 0, 0, 1, 0, 1, 391.8, 117.54, 1, 1, 0, 1, 0, 1, 0, 1, 0, 1
2006, '1', 117.54, -36.519, 199.43, -43.49, 1.0307359, 0, 0, 0, 1.0, 0, 0, 1, 0, 1, 391.8, 117.54, 1, 1, 0, 1, 0, 1, 0, 1, 0, 1
2013, '1', 75.7, -28.89, 42.73, -28.89, 1.0331935, 0, 0, 0, 1.0, 0, 0, 1, 1, 1, 75.7, 0, 1, 1, 0, 1, 0, 1, 0, 1, 0, 1
2019, '1', 150.013, -31.15, 46.43, -31.39, 1.0254635, 0, 0, 0, 1.0, 0, 0, 1, 0, 1, 150.1, 0, 1, 1, 0, 1, 0, 1, 0, 1, 0, 1
2023, '1', 25.237712, -9.25, 42.42, -9.25, 1.0283045, 0, 0, 0, 1.0, 0, 0, 1, 1, 1, 83.33, 25, 1, 1, 0, 1, 0, 1, 0, 1, 0, 1
2024, '1', 50.475453, -18.5, 84.83, -18.5, 1.0270094, 0, 0, 0, 1.0, 0, 0, 1, 1, 1, 166.67, 50, 1, 1, 0, 1, 0, 1, 0, 1, 0, 1
2042, '1', 43.1, -11.46, 16.95, -11.46, 1.0237741, 0, 0, 0, 1.0, 0, 0, 1, 1, 1, 43.1, 0, 1, 1, 0, 1, 0, 1, 0, 1, 0, 1
2056, '1', 5.896, -0.73, 2.8, -0.73, 1.0237557, 0, 0, 0, 1.0, 0, 0, 1, 0, 1, 6, 1.8, 1, 1, 0, 1, 0, 1, 0, 1, 0, 1
2057, '1', 218.05392, -87.84, 335.52, -87.84, 1.012434, 0, 0, 0, 1.0, 0, 0, 1, 1, 1, 720, 216, 1, 1, 0, 1, 0, 1, 0, 1, 0, 1
2059, '1', 11.9, -11.52, 17.04, -11.52, 1.0213038, 0, 0, 0, 1.0, 0, 0, 1, 1, 1, 11.9, 0, 1, 1, 0, 1, 0, 1, 0, 1, 0, 1
2062, '1', 57.3, -19.5, 28.84, -19.5, 1.02, 0, 0, 0, 1.0, 0, 0, 1, 1, 1, 57.3, 0, 1, 1, 0, 1, 0, 1, 0, 1, 0, 1
2071, '1', 111.1, -21.6, 31.95, -21.6, 1.0044623, 0, 0, 0, 1.0, 0, 0, 1, 1, 1, 111.1, 0, 1, 1, 0, 1, 0, 1, 0, 1, 0, 1
2076, '1', 13, -4.32, 6.39, -4.32, 1.0351737, 0, 0, 0, 1.0, 0, 0, 1, 1, 1, 13, 0, 1, 1, 0, 1, 0, 1, 0, 1, 0, 1
2078, '1', 17.7, -16.2, 23.96, -16.2, 1.02, 0, 0, 0, 1.0, 0, 0, 1, 1, 1, 17.7, 0, 1, 1, 0, 1, 0, 1, 0, 1, 0, 1
2083, '1', 6.0570532, -2.22, 10.18, -2.22, 1.02, 0, 0, 0, 1.0, 0, 0, 1, 1, 1, 20, 6, 1, 1, 0, 1, 0, 1, 0, 1, 0, 1
2084, '1', 18.784, -2.22, 10.18, -2.22, 1.018247, 0, 0, 0, 1.0, 0, 0, 1, 0, 1, 20, 6, 1, 1, 0, 1, 0, 1, 0, 1, 0, 1
2085, '1', 39.984, 5.116, 20.36, -4.44, 1.018247, 0, 0, 0, 1.0, 0, 0, 1, 0, 1, 40, 12, 1, 1, 0, 1, 0, 1, 0, 1, 0, 1
2089, '1', 11, -9.73, 14.4, -9.73, 1.0046775, 0, 0, 0, 1.0, 0, 0, 1, 1, 1, 11, 0, 1, 1, 0, 1, 0, 1, 0, 1, 0, 1
2094, '1', 5.196, -1.44, 2.13, -1.44, 1.0302205, 0, 0, 0, 1.0, 0, 0, 1, 0, 1, 5.2, 0, 1, 1, 0, 1, 0, 1, 0, 1, 0, 1
2095, '1', 40.968, -11.45, 16.93, -11.45, 1.0302205, 0, 0, 0, 1.0, 0, 0, 1, 0, 1, 41, 0, 1, 1, 0, 1, 0, 1, 0, 1, 0, 1
2099, '1', 0.6, -1.44, 2.13, -1.44, 1.0007418, 0, 0, 0, 1.0, 0, 0, 1, 1, 1, 0.6, 0, 1, 1, 0, 1, 0, 1, 0, 1, 0, 1
2100, '1', 9, -21.6, 31.95, -21.6, 1.0134121, 0, 0, 0, 1.0, 0, 0, 1, 1, 1, 9, 0, 1, 1, 0, 1, 0, 1, 0, 1, 0, 1
2103, '1', 0, 0, 136.28, -29.72, 1.0296833, 0, 0, 0, 1.0, 0, 0, 1, 0, 1, 267.73, 80.32, 1, 1, 0, 1, 0, 1, 0, 1, 0, 1
2104, '1', 80.32, -29.72, 136.28, -29.72, 1.0296833, 0, 0, 0, 1.0, 0, 0, 1, 0, 1, 267.73, 80.32, 1, 1, 0, 1, 0, 1, 0, 1, 0, 1
2105, '1', 0, 0, 136.28, -29.72, 1.0296833, 0, 0, 0, 1.0, 0, 0, 1, 0, 1, 267.73, 80.32, 1, 1, 0, 1, 0, 1, 0, 1, 0, 1
2115, '1', 55.936944, -20.5, 94.02, -20.5, 1.023609, 0, 0, 0, 1.0, 0, 0, 1, 1, 1, 184.72, 55.41, 1, 1, 0, 1, 0, 1, 0, 1, 0, 1
2116, '1', 55.936944, -20.5, 94.02, -20.5, 1.0271926, 0, 0, 0, 1.0, 0, 0, 1, 1, 1, 184.72, 55.41, 1, 1, 0, 1, 0, 1, 0, 1, 0, 1
2117, '1', 55.936944, -20.5, 94.02, -20.5, 1.0221254, 0, 0, 0, 1.0, 0, 0, 1, 1, 1, 184.72, 55.41, 1, 1, 0, 1, 0, 1, 0, 1, 0, 1
2118, '1', 55.936944, -20.5, 94.02, -20.5, 1.0212062, 0, 0, 0, 1.0, 0, 0, 1, 1, 1, 184.72, 55.41, 1, 1, 0, 1, 0, 1, 0, 1, 0, 1
2119, '1', 55.936944, -20.5, 94.02, -20.5, 1.0263306, 0, 0, 0, 1.0, 0, 0, 1, 1, 1, 184.72, 55.41, 1, 1, 0, 1, 0, 1, 0, 1, 0, 1
2120, '1', 55.936944, -20.5, 94.02, -20.5, 1.0216548, 0, 0, 0, 1.0, 0, 0, 1, 1, 1, 184.72, 55.41, 1, 1, 0, 1, 0, 1, 0, 1, 0, 1
2123, '1', 134.3, -26.16, 38.7, -26.16, 1.032948, 0, 0, 0, 1.0, 0, 0, 1, 1, 1, 134.3, 0, 1, 1, 0, 1, 0, 1, 0, 1, 0, 1
2127, '1', 190.4, 28.278674, 61.47, -41.56, 1.0411242, 0, 0, 0, 1.0, 0, 0, 1, 1, 1, 190.4, 0, 1, 1, 0, 1, 0, 1, 0, 1, 0, 1
3004, '1', 29.6, -5.4, 7.99, -5.4, 1.0107608, 0, 0, 0, 1.0, 0, 0, 1, 1, 1, 29.6, 0, 1, 1, 0, 1, 0, 1, 0, 1, 0, 1
3017, '1', 58.7, -24.41, 36.1, -24.41, 1.01, 0, 0, 0, 1.0, 0, 0, 1, 1, 1, 58.7, 0, 1, 1, 0, 1, 0, 1, 0, 1, 0, 1
3020, '1', 35.5, -21.6, 31.95, -21.6, 1.03, 0, 0, 0, 1.0, 0, 0, 1, 1, 1, 35.5, 0, 1, 1, 0, 1, 0, 1, 0, 1, 0, 1
3028, '1', 41.5, -28.8, 42.6, -28.8, 1.04, 0, 0, 0, 1.0, 0, 0, 1, 1, 1, 41.5, 0, 1, 1, 0, 1, 0, 1, 0, 1, 0, 1
3034, '1', 78.9, -18.79, 27.8, -18.79, 1.03, 0, 0, 0, 1.0, 0, 0, 1, 1, 1, 78.9, 0, 1, 1, 0, 1, 0, 1, 0, 1, 0, 1
3039, '1', 148.6, -30.1, 44.52, -30.1, 1.04, 0, 0, 0, 1.0, 0, 0, 1, 1, 1, 148.6, 0, 1, 1, 0, 1, 0, 1, 0, 1, 0, 1
3043, '1', 0.39, -0.14, 0.66, -0.14, 1.0347782, 0, 0, 0, 1.0, 0, 0, 1, 0, 1, 1.3, 0.39, 1, 1, 0, 1, 0, 1, 0, 1, 0, 1
3044, '1', 26.82, 6.499, 45.5, -9.92, 1.0347782, 0, 0, 0, 1.0, 0, 0, 1, 0, 1, 89.4, 26.82, 1, 1, 0, 1, 0, 1, 0, 1, 0, 1
3045, '1', 0, 0, 227.52, -49.62, 1.0347782, 0, 0, 0, 1.0, 0, 0, 1, 0, 1, 447, 134.1, 1, 1, 0, 1, 0, 1, 0, 1, 0, 1
3048, '1', 142.6, -34.7, 51.33, -34.7, 1.0466739, 0, 0, 0, 1.0, 0, 0, 1, 1, 1, 142.6, 0, 1, 1, 0, 1, 0, 1, 0, 1, 0, 1
3055, '1', 80.6, -35.3, 52.22, -35.3, 1.04, 0, 0, 0, 1.0, 0, 0, 1, 1, 1, 80.6, 0, 1, 1, 0, 1, 0, 1, 0, 1, 0, 1
3056, '1', 80.6, -35.3, 52.22, -35.3, 1.04, 0, 0, 0, 1.0, 0, 0, 1, 1, 1, 80.6, 0, 1, 1, 0, 1, 0, 1, 0, 1, 0, 1
3057, '1', 80.6, -35.3, 52.22, -35.3, 1.04, 0, 0, 0, 1.0, 0, 0, 1, 1, 1, 80.6, 0, 1, 1, 0, 1, 0, 1, 0, 1, 0, 1
3060, '1', 80.7, -23.85, 35.28, -23.85, 1.04, 0, 0, 0, 1.0, 0, 0, 1, 1, 1, 80.7, 0, 1, 1, 0, 1, 0, 1, 0, 1, 0, 1
3061, '1', 1, -23.85, 35.28, -23.85, 1.04, 0, 0, 0, 1.0, 0, 0, 1, 1, 1, 1, 0, 1, 1, 0, 1, 0, 1, 0, 1, 0, 1
3062, '1', 80.7, -23.85, 35.28, -23.85, 1.04, 0, 0, 0, 1.0, 0, 0, 1, 1, 1, 80.7, 0, 1, 1, 0, 1, 0, 1, 0, 1, 0, 1
3063, '1', 80.7, -23.85, 35.28, -23.85, 1.04, 0, 0, 0, 1.0, 0, 0, 1, 1, 1, 80.7, 0, 1, 1, 0, 1, 0, 1, 0, 1, 0, 1
3065, '1', 39.8, -11.59, 17.15, -11.59, 1, 0, 0, 0, 1.0, 0, 0, 1, 1, 1, 39.8, 0, 1, 1, 0, 1, 0, 1, 0, 1, 0, 1
3068, '1', 32.2, -21.6, 31.95, -21.6, 1.04, 0, 0, 0, 1.0, 0, 0, 1, 1, 1, 32.2, 0, 1, 1, 0, 1, 0, 1, 0, 1, 0, 1
3071, '1', 10.5, -24.51, 36.25, -24.51, 1.0034531, 0, 0, 0, 1.0, 0, 0, 1, 1, 1, 10.5, 0, 1, 1, 0, 1, 0, 1, 0, 1, 0, 1
3074, '1', 9.5, -14.37, 21.26, -14.37, 1, 0, 0, 0, 1.0, 0, 0, 1, 1, 1, 9.5, 0, 1, 1, 0, 1, 0, 1, 0, 1, 0, 1
3081, '1', 210.9, -35.86, 53.04, -35.86, 1.04, 0, 0, 0, 1.0, 0, 0, 1, 1, 1, 210.9, 0, 1, 1, 0, 1, 0, 1, 0, 1, 0, 1
3084, '1', 156.4, -33.48, 49.52, -33.48, 1, 0, 0, 0, 1.0, 0, 0, 1, 1, 1, 156.4, 0, 1, 1, 0, 1, 0, 1, 0, 1, 0, 1
3086, '1', 49.6, -10.8, 15.97, -10.8, 1, 0, 0, 0, 1.0, 0, 0, 1, 1, 1, 49.6, 0, 1, 1, 0, 1, 0, 1, 0, 1, 0, 1
3087, '1', 49.57, -5.183, 15.97, -10.8, 1.0133326, 0, 0, 0, 1.0, 0, 0, 1, 0, 1, 49.6, 0, 1, 1, 0, 1, 0, 1, 0, 1, 0, 1
3092, '1', 51.8, -28.8, 42.6, -28.8, 1.04, 0, 0, 0, 1.0, 0, 0, 1, 1, 1, 51.8, 0, 1, 1, 0, 1, 0, 1, 0, 1, 0, 1
3095, '1', 68.3, -17.37, 25.69, -17.37, 1.04, 0, 0, 0, 1.0, 0, 0, 1, 1, 1, 68.3, 0, 1, 1, 0, 1, 0, 1, 0, 1, 0, 1
3098, '1', 88.2, -23.04, 34.08, -23.04, 1.04, 0, 0, 0, 1.0, 0, 0, 1, 1, 1, 88.2, 0, 1, 1, 0, 1, 0, 1, 0, 1, 0, 1
3105, '1', 0, -0.74, 17.071, -0.74, 1.0204138, 0, 0, 0, 1.0, 0, 0, 1, 1, 1, 0, 0, 1, 1, 0, 1, 0, 1, 0, 1, 0, 1
3106, '1', 0, -2.69, 62.477, -2.69, 1.0162037, 0, 0, 0, 1.0, 0, 0, 1, 1, 1, 0, 0, 1, 1, 0, 1, 0, 1, 0, 1, 0, 1
3110, '1', 46.1, -12.1, 17.89, -12.1, 1.04, 0, 0, 0, 1.0, 0, 0, 1, 1, 1, 46.1, 0, 1, 1, 0, 1, 0, 1, 0, 1, 0, 1
3112, '1', 50.6, -10.77, 15.93, -10.77, 1, 0, 0, 0, 1.0, 0, 0, 1, 1, 1, 50.6, 0, 1, 1, 0, 1, 0, 1, 0, 1, 0, 1
3113, '1', 10.1, -10.77, 15.93, -10.77, 1, 0, 0, 0, 1.0, 0, 0, 1, 1, 1, 10.1, 0, 1, 1, 0, 1, 0, 1, 0, 1, 0, 1
3117, '1', 49.7, -9.07, 13.42, -9.07, 1, 0, 0, 0, 1.0, 0, 0, 1, 1, 1, 49.7, 0, 1, 1, 0, 1, 0, 1, 0, 1, 0, 1
3118, '1', 28.1, -17.28, 25.56, -17.28, 1, 0, 0, 0, 1.0, 0, 0, 1, 1, 1, 28.1, 0, 1, 1, 0, 1, 0, 1, 0, 1, 0, 1
3120, '1', 0, 0, 0, 0, 1.015133, 0, 0, 0, 1.0, 0, 0, 1, 1, 1, 0, 0, 1, 1, 0, 1, 0, 1, 0, 1, 0, 1
3122, '1', 126.8, -28.37, 41.96, -28.37, 1, 0, 0, 0, 1.0, 0, 0, 1, 1, 1, 126.8, 0, 1, 1, 0, 1, 0, 1, 0, 1, 0, 1
3127, '1', 74.4, -19.44, 28.76, -19.44, 1.0146903, 0, 0, 0, 1.0, 0, 0, 1, 1, 1, 74.4, 0, 1, 1, 0, 1, 0, 1, 0, 1, 0, 1
3129, '1', 77.6, -18.22, 26.94, -18.22, 1.0116615, 0, 0, 0, 1.0, 0, 0, 1, 1, 1, 77.6, 0, 1, 1, 0, 1, 0, 1, 0, 1, 0, 1
3131, '1', 37.1, -16.42, 24.28, -16.42, 1.02, 0, 0, 0, 1.0, 0, 0, 1, 1, 1, 37.1, 0, 1, 1, 0, 1, 0, 1, 0, 1, 0, 1
3133, '1', 15.39, 8.883, 26.11, -5.69, 1.025427, 0, 0, 0, 1.0, 0, 0, 1, 0, 1, 51.3, 15.39, 1, 1, 0, 1, 0, 1, 0, 1, 0, 1
3133, '2', 15.39, 8.883, 26.11, -5.69, 1.025427, 0, 0, 0, 1.0, 0, 0, 1, 0, 1, 51.3, 15.39, 1, 1, 0, 1, 0, 1, 0, 1, 0, 1
3133, '3', 15.39, 8.883, 26.11, -5.69, 1.025427, 0, 0, 0, 1.0, 0, 0, 1, 0, 1, 51.3, 15.39, 1, 1, 0, 1, 0, 1, 0, 1, 0, 1
3137, '1', 30.7, -14.57, 21.56, -14.57, 1.0263451, 0, 0, 0, 1.0, 0, 0, 1, 1, 1, 30.7, 0, 1, 1, 0, 1, 0, 1, 0, 1, 0, 1
3141, '1', 66.5, -13.18, 19.49, -13.18, 1.0159695, 0, 0, 0, 1.0, 0, 0, 1, 1, 1, 66.5, 0, 1, 1, 0, 1, 0, 1, 0, 1, 0, 1
4010, '1', 0.2, -29.03, 42.94, -29.03, 1.03, 0, 0, 0, 1.0, 0, 0, 1, 1, 1, 0.2, 0, 1, 1, 0, 1, 0, 1, 0, 1, 0, 1
4026, '1', 124.16959, -50.02, 191.06, -50.02, 1.03, 0, 0, 0, 1.0, 0, 0, 1, 1, 1, 410, 123, 1, 1, 0, 1, 0, 1, 0, 1, 0, 1
4030, '1', 188.4955, -75.93, 290.04, -75.93, 1.0124181, 0, 0, 0, 1.0, 0, 0, 1, 1, 1, 622.4, 186.72, 1, 1, 0, 1, 0, 1, 0, 1, 0, 1
4045, '1', 0, -1.54, 35.862, -1.54, 1.02, 0, 0, 0, 1.0, 0, 0, 1, 1, 1, 0, 0, 1, 1, 0, 1, 0, 1, 0, 1, 0, 1
4046, '1', 0, -0.47, 10.936, -0.47, 1.02, 0, 0, 0, 1.0, 0, 0, 1, 1, 1, 0, 0, 1, 1, 0, 1, 0, 1, 0, 1, 0, 1
4047, '1', 0, -3.23, 75.102, -3.23, 1.02, 0, 0, 0, 1.0, 0, 0, 1, 1, 1, 0, 0, 1, 1, 0, 1, 0, 1, 0, 1, 0, 1
4050, '1', 8.3, -28.8, 42.6, -28.8, 1, 0, 0, 0, 1.0, 0, 0, 1, 1, 1, 8.3, 0, 1, 1, 0, 1, 0, 1, 0, 1, 0, 1
4052, '1', 13.386088, -4.91, 22.5, -4.91, 1.04, 0, 0, 0, 1.0, 0, 0, 1, 1, 1, 44.2, 13.26, 1, 1, 0, 1, 0, 1, 0, 1, 0, 1
4058, '1', 43.610783, -15.98, 73.3, -15.98, 1.03, 0, 0, 0, 1.0, 0, 0, 1, 1, 1, 144, 43.2, 1, 1, 0, 1, 0, 1, 0, 1, 0, 1
4059, '1', 43.610783, -15.98, 73.3, -15.98, 1.03, 0, 0, 0, 1.0, 0, 0, 1, 1, 1, 144, 43.2, 1, 1, 0, 1, 0, 1, 0, 1, 0, 1
4060, '1', 43.610783, -15.98, 73.3, -15.98, 1.03, 0, 0, 0, 1.0, 0, 0, 1, 1, 1, 144, 43.2, 1, 1, 0, 1, 0, 1, 0, 1, 0, 1
4061, '1', 52.191599, -19.13, 87.72, -19.13, 1.03, 0, 0, 0, 1.0, 0, 0, 1, 1, 1, 172.33, 51.7, 1, 1, 0, 1, 0, 1, 0, 1, 0, 1
4062, '1', 52.191599, -19.13, 87.72, -19.13, 1.03, 0, 0, 0, 1.0, 0, 0, 1, 1, 1, 172.33, 51.7, 1, 1, 0, 1, 0, 1, 0, 1, 0, 1
4063, '1', 52.191599, -19.13, 87.72, -19.13, 1.03, 0, 0, 0, 1.0, 0, 0, 1, 1, 1, 172.33, 51.7, 1, 1, 0, 1, 0, 1, 0, 1, 0, 1
4065, '1', 14.234075, -5.22, 23.92, -5.22, 1.02, 0, 0, 0, 1.0, 0, 0, 1, 1, 1, 47, 14.1, 1, 1, 0, 1, 0, 1, 0, 1, 0, 1
4075, '1', 52.9, 22.439, 89.75, -19.57, 1.0171827, 0, 0, 0, 1.0, 0, 0, 1, 0, 1, 176.33, 52.9, 1, 1, 0, 1, 0, 1, 0, 1, 0, 1
4076, '1', 53.40301, -19.57, 89.75, -19.57, 1.03, 0, 0, 0, 1.0, 0, 0, 1, 1, 1, 176.33, 52.9, 1, 1, 0, 1, 0, 1, 0, 1, 0, 1
4077, '1', 53.40301, -19.57, 89.75, -19.57, 1.03, 0, 0, 0, 1.0, 0, 0, 1, 1, 1, 176.33, 52.9, 1, 1, 0, 1, 0, 1, 0, 1, 0, 1
4082, '1', 73.714338, -27.02, 123.89, -27.02, 1.04, 0, 0, 0, 1.0, 0, 0, 1, 1, 1, 243.4, 73.02, 1, 1, 0, 1, 0, 1, 0, 1, 0, 1
4083, '1', 73.714338, -27.02, 123.89, -27.02, 1.04, 0, 0, 0, 1.0, 0, 0, 1, 1, 1, 243.4, 73.02, 1, 1, 0, 1, 0, 1, 0, 1, 0, 1
4084, '1', 73.714338, -27.02, 123.89, -27.02, 1.04, 0, 0, 0, 1.0, 0, 0, 1, 1, 1, 243.4, 73.02, 1, 1, 0, 1, 0, 1, 0, 1, 0, 1
4085, '1', 106.60414, -39.07, 179.17, -39.07, 1.04, 0, 0, 0, 1.0, 0, 0, 1, 1, 1, 352, 105.6, 1, 1, 0, 1, 0, 1, 0, 1, 0, 1
4090, '1', 1.399, 0.36, 0.65, -0.17, 1.0106676, 0, 0, 0, 1.0, 0, 0, 1, 0, 1, 1.4, 0.42, 1, 1, 0, 1, 0, 1, 0, 1, 0, 1
4091, '1', 7.1170376, -2.87, 10.95, -2.87, 1.01, 0, 0, 0, 1.0, 0, 0, 1, 1, 1, 23.5, 7.05, 1, 1, 0, 1, 0, 1, 0, 1, 0, 1
4092, '1', 7.597, 1.653, 3.54, -0.93, 1.0106676, 0, 0, 0, 1.0, 0, 0, 1, 0, 1, 7.6, 2.28, 1, 1, 0, 1, 0, 1, 0, 1, 0, 1
4093, '1', 8.4798745, -3.42, 13.05, -3.42, 1.01, 0, 0, 0, 1.0, 0, 0, 1, 1, 1, 28, 8.4, 1, 1, 0, 1, 0, 1, 0, 1, 0, 1
4094, '1', 8.4798745, -3.42, 13.05, -3.42, 1.01, 0, 0, 0, 1.0, 0, 0, 1, 1, 1, 28, 8.4, 1, 1, 0, 1, 0, 1, 0, 1, 0, 1
4095, '1', 8.4798745, -3.42, 13.05, -3.42, 1.01, 0, 0, 0, 1.0, 0, 0, 1, 1, 1, 28, 8.4, 1, 1, 0, 1, 0, 1, 0, 1, 0, 1
4096, '1', 26.298, 0.043, 13.05, -3.42, 1.0106676, 0, 0, 0, 1.0, 0, 0, 1, 0, 1, 28, 8.4, 1, 1, 0, 1, 0, 1, 0, 1, 0, 1
4097, '1', 8.4798745, -3.42, 13.05, -3.42, 1.01, 0, 0, 0, 1.0, 0, 0, 1, 1, 1, 28, 8.4, 1, 1, 0, 1, 0, 1, 0, 1, 0, 1
4098, '1', 26.298, -0.247, 13.05, -3.42, 1.0106676, 0, 0, 0, 1.0, 0, 0, 1, 0, 1, 28, 8.4, 1, 1, 0, 1, 0, 1, 0, 1, 0, 1
4105, '1', 17.6, -25.92, 38.34, -25.92, 1.01, 0, 0, 0, 1.0, 0, 0, 1, 1, 1, 17.6, 0, 1, 1, 0, 1, 0, 1, 0, 1, 0, 1
4115, '1', 39.915981, -14.63, 67.09, -14.63, 1.04, 0, 0, 0, 1.0, 0, 0, 1, 1, 1, 131.8, 39.54, 1, 1, 0, 1, 0, 1, 0, 1, 0, 1
4116, '1', 39.915981, -14.63, 67.09, -14.63, 1.04, 0, 0, 0, 1.0, 0, 0, 1, 1, 1, 131.8, 39.54, 1, 1, 0, 1, 0, 1, 0, 1, 0, 1
4133, '1', 10.08, -3.73, 17.1, -3.73, 1.0216883, 0, 0, 0, 1.0, 0, 0, 1, 0, 1, 33.6, 10.08, 1, 1, 0, 1, 0, 1, 0, 1, 0, 1
4134, '1', 10.175849, -3.73, 17.1, -3.73, 1.0163692, 0, 0, 0, 1.0, 0, 0, 1, 1, 1, 33.6, 10.08, 1, 1, 0, 1, 0, 1, 0, 1, 0, 1
4135, '1', 10.175849, -3.73, 17.1, -3.73, 1.0167625, 0, 0, 0, 1.0, 0, 0, 1, 1, 1, 33.6, 10.08, 1, 1, 0, 1, 0, 1, 0, 1, 0, 1
4136, '1', 10.175849, -3.73, 17.1, -3.73, 1.0150709, 0, 0, 0, 1.0, 0, 0, 1, 1, 1, 33.6, 10.08, 1, 1, 0, 1, 0, 1, 0, 1, 0, 1
4137, '1', 20.16, -7.46, 34.2, -7.46, 1.0216883, 0, 0, 0, 1.0, 0, 0, 1, 0, 1, 67.2, 20.16, 1, 1, 0, 1, 0, 1, 0, 1, 0, 1
4138, '1', 0, -7.33, 33.59, -7.33, 1.0216883, 0, 0, 0, 1.0, 0, 0, 1, 0, 1, 66, 19.8, 1, 1, 0, 1, 0, 1, 0, 1, 0, 1
4142, '1', 1.5, -27.07, 40.04, -27.07, 1.04, 0, 0, 0, 1.0, 0, 0, 1, 1, 1, 1.5, 0, 1, 1, 0, 1, 0, 1, 0, 1, 0, 1
4153, '1', 6, -40.78, 60.32, -40.78, 1.04, 0, 0, 0, 1.0, 0, 0, 1, 1, 1, 6, 0, 1, 1, 0, 1, 0, 1, 0, 1, 0, 1
4160, '1', 59.894171, -21.95, 100.66, -21.95, 1.03, 0, 0, 0, 1.0, 0, 0, 1, 1, 1, 197.77, 59.33, 1, 1, 0, 1, 0, 1, 0, 1, 0, 1
4161, '1', 59.894171, -21.95, 100.66, -21.95, 1.03, 0, 0, 0, 1.0, 0, 0, 1, 1, 1, 197.77, 59.33, 1, 1, 0, 1, 0, 1, 0, 1, 0, 1
4162, '1', 59.894171, -21.95, 100.66, -21.95, 1.03, 0, 0, 0, 1.0, 0, 0, 1, 1, 1, 197.77, 59.33, 1, 1, 0, 1, 0, 1, 0, 1, 0, 1
4163, '1', 8.453, 4.58, 4.58, -1, 1.0236176, 0, 0, 0, 1.0, 0, 0, 1, 0, 1, 9, 2.7, 1, 1, 0, 1, 0, 1, 0, 1, 0, 1
4166, '1', 4.3, -28.94, 42.81, -28.94, 1.0109679, 0, 0, 0, 1.0, 0, 0, 1, 1, 1, 4.3, 0, 1, 1, 0, 1, 0, 1, 0, 1, 0, 1
4177, '1', 101.6, -21.6, 31.95, -21.6, 1.04, 0, 0, 0, 1.0, 0, 0, 1, 1, 1, 101.6, 0, 1, 1, 0, 1, 0, 1, 0, 1, 0, 1
4181, '1', 15.4, -28.81, 42.62, -28.81, 1.0321572, 0, 0, 0, 1.0, 0, 0, 1, 1, 1, 15.4, 0, 1, 1, 0, 1, 0, 1, 0, 1, 0, 1
4183, '1', 162.1, -29.23, 43.24, -29.23, 1.0278941, 0, 0, 0, 1.0, 0, 0, 1, 1, 1, 162.1, 0, 1, 1, 0, 1, 0, 1, 0, 1, 0, 1
4192, '1', 22.71395, -8.33, 38.17, -8.33, 1.02, 0, 0, 0, 1.0, 0, 0, 1, 1, 1, 75, 22.5, 1, 1, 0, 1, 0, 1, 0, 1, 0, 1
4192, '10', 55.654234, -20.4, 93.54, -20.4, 1.02, 0, 0, 0, 1.0, 0, 0, 1, 1, 1, 183.77, 55.13, 1, 1, 0, 1, 0, 1, 0, 1, 0, 1
4192, '2', 23.99, 7.169, 12.22, -2.66, 1.02, 0, 0, 0, 1.0, 0, 0, 1, 0, 1, 24, 7.2, 1, 1, 0, 1, 0, 1, 0, 1, 0, 1
4192, '3', 18.474012, -6.77, 31.05, -6.77, 1.02, 0, 0, 0, 1.0, 0, 0, 1, 1, 1, 61, 18.3, 1, 1, 0, 1, 0, 1, 0, 1, 0, 1
4192, '4', 3.1496677, -1.15, 5.29, -1.15, 1.02, 0, 0, 0, 1.0, 0, 0, 1, 1, 1, 10.4, 3.12, 1, 1, 0, 1, 0, 1, 0, 1, 0, 1
4192, '5', 80.861661, -29.64, 135.9, -29.64, 1.02, 0, 0, 0, 1.0, 0, 0, 1, 1, 1, 267, 80.1, 1, 1, 0, 1, 0, 1, 0, 1, 0, 1
4192, '6', 80.861661, -29.64, 135.9, -29.64, 1.02, 0, 0, 0, 1.0, 0, 0, 1, 1, 1, 267, 80.1, 1, 1, 0, 1, 0, 1, 0, 1, 0, 1
4192, '7', 80.861661, -29.64, 135.9, -29.64, 1.02, 0, 0, 0, 1.0, 0, 0, 1, 1, 1, 267, 80.1, 1, 1, 0, 1, 0, 1, 0, 1, 0, 1
4192, '8', 55.654234, -20.4, 93.54, -20.4, 1.02, 0, 0, 0, 1.0, 0, 0, 1, 1, 1, 183.77, 55.13, 1, 1, 0, 1, 0, 1, 0, 1, 0, 1
4192, '9', 55.654234, -20.4, 93.54, -20.4, 1.02, 0, 0, 0, 1.0, 0, 0, 1, 1, 1, 183.77, 55.13, 1, 1, 0, 1, 0, 1, 0, 1, 0, 1
4194, '1', 2, -29.03, 42.94, -29.03, 1.0124331, 0, 0, 0, 1.0, 0, 0, 1, 1, 1, 2, 0, 1, 1, 0, 1, 0, 1, 0, 1, 0, 1
4195, '1', 5.5, -13.25, 19.6, -13.25, 1.0343328, 0, 0, 0, 1.0, 0, 0, 1, 1, 1, 5.5, 0, 1, 1, 0, 1, 0, 1, 0, 1, 0, 1
5020, '1', 3.6, -17.28, 25.56, -17.28, 1.0271569, 0, 0, 0, 1.0, 0, 0, 1, 1, 1, 3.6, 0, 1, 1, 0, 1, 0, 1, 0, 1, 0, 1
5023, '1', 4.538, 2.44, 2.44, -0.53, 1.025263, 0, 0, 0, 1.0, 0, 0, 1, 0, 1, 4.8, 1.44, 1, 1, 0, 1, 0, 1, 0, 1, 0, 1
5035, '1', 4.198, -0.47, 2.14, -0.47, 1.0230182, 0, 0, 0, 1.0, 0, 0, 1, 0, 1, 4.2, 1.26, 1, 1, 0, 1, 0, 1, 0, 1, 0, 1
5036, '1', 6.05, 0.178, 3.26, -0.71, 1.0230182, 0, 0, 0, 1.0, 0, 0, 1, 0, 1, 6.4, 1.92, 1, 1, 0, 1, 0, 1, 0, 1, 0, 1
5037, '1', 93.419961, -34.24, 157.01, -34.24, 1.02, 0, 0, 0, 1.0, 0, 0, 1, 1, 1, 308.47, 92.54, 1, 1, 0, 1, 0, 1, 0, 1, 0, 1
5038, '1', 93.419961, -34.24, 157.01, -34.24, 1.02, 0, 0, 0, 1.0, 0, 0, 1, 1, 1, 308.47, 92.54, 1, 1, 0, 1, 0, 1, 0, 1, 0, 1
5039, '1', 93.419961, -34.24, 157.01, -34.24, 1.0212276, 0, 0, 0, 1.0, 0, 0, 1, 1, 1, 308.47, 92.54, 1, 1, 0, 1, 0, 1, 0, 1, 0, 1
5040, '1', 93.419961, -34.24, 157.01, -34.24, 1.02, 0, 0, 0, 1.0, 0, 0, 1, 1, 1, 308.47, 92.54, 1, 1, 0, 1, 0, 1, 0, 1, 0, 1
5041, '1', 93.419961, -34.24, 157.01, -34.24, 1.02, 0, 0, 0, 1.0, 0, 0, 1, 1, 1, 308.47, 92.54, 1, 1, 0, 1, 0, 1, 0, 1, 0, 1
5042, '1', 93.419961, -34.24, 157.01, -34.24, 1.02, 0, 0, 0, 1.0, 0, 0, 1, 1, 1, 308.47, 92.54, 1, 1, 0, 1, 0, 1, 0, 1, 0, 1
5051, '1', 25.65162, -9.4, 43.11, -9.4, 1.0289009, 0, 0, 0, 1.0, 0, 0, 1, 1, 1, 84.7, 25.41, 1, 1, 0, 1, 0, 1, 0, 1, 0, 1
5057, '1', 228.364, -35.23, 161.53, -35.23, 1.0304511, 0, 0, 0, 1.0, 0, 0, 1, 0, 1, 317.35, 95.2, 1, 1, 0, 1, 0, 1, 0, 1, 0, 1
5058, '1', 96.105292, -35.23, 161.53, -35.23, 1.0239483, 0, 0, 0, 1.0, 0, 0, 1, 1, 1, 317.35, 95.2, 1, 1, 0, 1, 0, 1, 0, 1, 0, 1
5065, '1', 9.1462382, -1.18, 5.4, -1.18, 1.027, 0, 0, 0, 1.0, 0, 0, 1, 1, 1, 10.6, 3.18, 1, 1, 0, 1, 0, 1, 0, 1, 0, 1
5066, '1', 1.799, 0.92, 0.92, -0.2, 1.0260794, 0, 0, 0, 1.0, 0, 0, 1, 0, 1, 1.8, 0.54, 1, 1, 0, 1, 0, 1, 0, 1, 0, 1
5067, '1', 132.73024, -48.65, 223.08, -48.65, 1.03, 0, 0, 0, 1.0, 0, 0, 1, 1, 1, 438.27, 131.48, 1, 1, 0, 1, 0, 1, 0, 1, 0, 1
5068, '1', 132.73024, -48.65, 223.08, -48.65, 1.03, 0, 0, 0, 1.0, 0, 0, 1, 1, 1, 438.27, 131.48, 1, 1, 0, 1, 0, 1, 0, 1, 0, 1
5069, '1', 132.73024, -48.65, 223.08, -48.65, 1.03, 0, 0, 0, 1.0, 0, 0, 1, 1, 1, 438.27, 131.48, 1, 1, 0, 1, 0, 1, 0, 1, 0, 1
5089, '1', 123.883, -2.05, 47.569, -2.05, 1.0300428, 0, 0, 0, 1.0, 0, 0, 1, 0, 1, 123.9, 0, 1, 1, 0, 1, 0, 1, 0, 1, 0, 1
...
0 / END OF GENERATOR DATA, BEGIN BRANCH DATA
1001, 1064, '1', 0.00524, 0.0358, 0.00609, 221, 221, 221, 0, 0, 0, 0, 1, 1, 0, 1, 1, 0, 1, 0, 1, 0, 1
1001, 1064, '2', 0.00524, 0.0358, 0.00609, 221, 221, 221, 0, 0, 0, 0, 1, 1, 0, 1, 1, 0, 1, 0, 1, 0, 1
1001, 1071, '1', 0.00435, 0.02808, 0.00536, 221, 221, 221, 0, 0, 0, 0, 1, 1, 0, 1, 1, 0, 1, 0, 1, 0, 1
1001, 1071, '2', 0.00435, 0.02808, 0.00536, 221, 221, 221, 0, 0, 0, 0, 1, 1, 0, 1, 1, 0, 1, 0, 1, 0, 1
1002, 1007, '1', 0.07776, 0.46693, 0.06336, 98, 98, 98, 0, 0, 0, 0, 1, 1, 0, 1, 1, 0, 1, 0, 1, 0, 1
1010, 1002, '1', 0.05552, 0.1357, 0.01777, 98, 98, 98, 0, 0, 0, 0, 1, 1, 0, 1, 1, 0, 1, 0, 1, 0, 1
1022, 1003, '1', 0.00485, 0.02012, 0.00341, 221, 221, 221, 0, 0, 0, 0, 1, 1, 0, 1, 1, 0, 1, 0, 1, 0, 1
1055, 1003, '1', 0.01574, 0.03782, 0.00513, 98, 98, 98, 0, 0, 0, 0, 1, 1, 0, 1, 1, 0, 1, 0, 1, 0, 1
1004, 3133, '1', 0.0042, 0.03, 0.055, 523, 523, 523, 0, 0, 0, 0, 1, 1, 0, 1, 1, 0, 1, 0, 1, 0, 1
1025, 1005, '1', 0.01842, 0.0821, 0.01204, 149, 149, 149, 0, 0, 0, 0, 1, 1, 0, 1, 1, 0, 1, 0, 1, 0, 1
1005, 1061, '1', 0.00599, 0.02484, 0.00422, 221, 221, 221, 0, 0, 0, 0, 0, 1, 0, 1, 1, 0, 1, 0, 1, 0, 1
1067, 1005, '1', 0.01711, 0.04181, 0.00548, 98, 98, 98, 0, 0, 0, 0, 1, 1, 0, 1, 1, 0, 1, 0, 1, 0, 1
1007, 1015, '1', 0.06224, 0.37375, 0.05072, 98, 98, 98, 0, 0, 0, 0, 1, 1, 0, 1, 1, 0, 1, 0, 1, 0, 1
1031, 1007, '1', 0.04803, 0.27434, 0.04123, 98, 98, 98, 0, 0, 0, 0, 1, 1, 0, 1, 1, 0, 1, 0, 1, 0, 1
1008, 1032, '1', 0.04501, 0.11002, 0.01441, 98, 98, 98, 0, 0, 0, 0, 1, 1, 0, 1, 1, 0, 1, 0, 1, 0, 1
1008, 1069, '1', 0.0083, 0.03628, 0.00553, 149, 149, 149, 0, 0, 0, 0, 1, 1, 0, 1, 1, 0, 1, 0, 1, 0, 1
1010, 1015, '1', 0.04703, 0.28243, 0.03833, 98, 98, 98, 0, 0, 0, 0, 1, 1, 0, 1, 1, 0, 1, 0, 1, 0, 1
1010, 1030, '1', 0.0616, 0.3699, 0.0502, 98, 98, 98, 0, 0, 0, 0, 1, 1, 0, 1, 1, 0, 1, 0, 1, 0, 1
1012, 1087, '1', 0.04934, 0.20469, 0.03473, 149, 149, 149, 0, 0, 0, 0, 1, 1, 0, 1, 1, 0, 1, 0, 1, 0, 1
3051, 1012, '1', 0.0571, 0.24977, 0.03804, 149, 149, 149, 0, 0, 0, 0, 1, 1, 0, 1, 1, 0, 1, 0, 1, 0, 1
1013, 1031, '1', 0.04509, 0.27078, 0.03675, 98, 98, 98, 0, 0, 0, 0, 1, 1, 0, 1, 1, 0, 1, 0, 1, 0, 1
1047, 1013, '1', 0.00947, 0.06117, 0.01167, 221, 221, 221, 0, 0, 0, 0, 1, 1, 0, 1, 1, 0, 1, 0, 1, 0, 1
1086, 1013, '1', 0.079, 0.19311, 0.02529, 98, 98, 98, 0, 0, 0, 0, 1, 1, 0, 1, 1, 0, 1, 0, 1, 0, 1
1014, 1047, '1', 0.03566, 0.14794, 0.0251, 149, 149, 149, 0, 0, 0, 0, 1, 1, 0, 1, 1, 0, 1, 0, 1, 0, 1
1014, 1083, '1', 0.04105, 0.18293, 0.02682, 149, 149, 149, 0, 0, 0, 0, 1, 1, 0, 1, 1, 0, 1, 0, 1, 0, 1
1016, 1034, '1', 0.01828, 0.10976, 0.01489, 98, 98, 98, 0, 0, 0, 0, 1, 1, 0, 1, 1, 0, 1, 0, 1, 0, 1
1068, 1016, '1', 0.02773, 0.15837, 0.0238, 98, 98, 98, 0, 0, 0, 0, 1, 1, 0, 1, 1, 0, 1, 0, 1, 0, 1
1018, 1017, '1', 0.03227, 0.07887, 0.01033, 98, 98, 98, 0, 0, 0, 0, 1, 1, 0, 1, 1, 0, 1, 0, 1, 0, 1
1017, 1029, '1', 0.03244, 0.14188, 0.02161, 149, 149, 149, 0, 0, 0, 0, 1, 1, 0, 1, 1, 0, 1, 0, 1, 0, 1
1037, 1017, '1', 0.00752, 0.03352, 0.00491, 221, 221, 221, 0, 0, 0, 0, 1, 1, 0, 1, 1, 0, 1, 0, 1, 0, 1
1047, 1017, '1', 0.036, 0.156, 0.024, 150, 150, 150, 0, 0, 0, 0, 1, 1, 0, 1, 1, 0, 1, 0, 1, 0, 1
1024, 1018, '1', 0.01094, 0.06572, 0.00892, 98, 98, 98, 0, 0, 0, 0, 1, 1, 0, 1, 1, 0, 1, 0, 1, 0, 1
1019, 1040, '1', 0.04978, 0.20651, 0.03504, 149, 149, 149, 0, 0, 0, 0, 1, 1, 0, 1, 1, 0, 1, 0, 1, 0, 1
1019, 1045, '1', 0.01522, 0.0372, 0.00487, 221, 221, 221, 0, 0, 0, 0, 1, 1, 0, 1, 1, 0, 1, 0, 1, 0, 1
1019, 1071, '1', 0.0044, 0.028, 0.0054, 225, 225, 225, 0, 0, 0, 0, 1, 1, 0, 1, 1, 0, 1, 0, 1, 0, 1
1071, 1019, '2', 0.0044, 0.028, 0.0054, 225, 225, 225, 0, 0, 0, 0, 1, 1, 0, 1, 1, 0, 1, 0, 1, 0, 1
1019, 1084, '1', 0.03, 0.16, 0.025, 220, 220, 220, 0, 0, 0, 0, 1, 1, 0, 1, 1, 0, 1, 0, 1, 0, 1
1025, 1020, '1', 0.00828, 0.03434, 0.00583, 149, 149, 149, 0, 0, 0, 0, 1, 1, 0, 1, 1, 0, 1, 0, 1, 0, 1
1084, 1020, '1', 0.01056, 0.06337, 0.0086, 221, 221, 221, 0, 0, 0, 0, 1, 1, 0, 1, 1, 0, 1, 0, 1, 0, 1
1020, 3059, '1', 0.0189, 0.06, 0.006, 300, 300, 300, 0, 0, 0, 0, 1, 1, 0, 1, 1, 0, 1, 0, 1, 0, 1
1020, 3130, '1', 0.00996, 0.06938, 0.01134, 221, 221, 221, 0, 0, 0, 0, 1, 1, 0, 1, 1, 0, 1, 0, 1, 0, 1
1022, 1028, '1', 0.01433, 0.09253, 0.01765, 221, 221, 221, 0, 0, 0, 0, 1, 1, 0, 1, 1, 0, 1, 0, 1, 0, 1
1022, 1028, '2', 0.01433, 0.09253, 0.01765, 221, 221, 221, 0, 0, 0, 0, 1, 1, 0, 1, 1, 0, 1, 0, 1, 0, 1
1024, 1090, '1', 0.01414, 0.06303, 0.00924, 149, 149, 149, 0, 0, 0, 0, 1, 1, 0, 1, 1, 0, 1, 0, 1, 0, 1
1027, 1045, '1', 0.02505, 0.10957, 0.01669, 221, 221, 221, 0, 0, 0, 0, 1, 1, 0, 1, 1, 0, 1, 0, 1, 0, 1
1056, 1027, '1', 0.03121, 0.0763, 0.00999, 250, 250, 250, 0, 0, 0, 0, 1, 1, 0, 1, 1, 0, 1, 0, 1, 0, 1
1028, 3109, '1', 0.00428, 0.01875, 0.00286, 250, 250, 250, 0, 0, 0, 0, 1, 1, 0, 1, 1, 0, 1, 0, 1, 0, 1
1029, 1056, '1', 0.02054, 0.11733, 0.01763, 221, 221, 221, 0, 0, 0, 0, 1, 1, 0, 1, 1, 0, 1, 0, 1, 0, 1
1030, 1038, '1', 0.07404, 0.42285, 0.06354, 98, 98, 98, 0, 0, 0, 0, 1, 1, 0, 1, 1, 0, 1, 0, 1, 0, 1
1083, 1030, '1', 0.06537, 0.37334, 0.0561, 98, 98, 98, 0, 0, 0, 0, 1, 1, 0, 1, 1, 0, 1, 0, 1, 0, 1
1032, 1036, '1', 0.01956, 0.11746, 0.01594, 98, 98, 98, 0, 0, 0, 0, 1, 1, 0, 1, 1, 0, 1, 0, 1, 0, 1
1038, 1032, '1', 0.045, 0.11, 0.015, 155, 155, 155, 0, 0, 0, 0, 1, 1, 0, 1, 1, 0, 1, 0, 1, 0, 1
1033, 1081, '1', 0.003, 0.031, 0.059, 548, 548, 548, 0, 0, 0, 0, 1, 1, 0, 1, 1, 0, 1, 0, 1, 0, 1
1033, 3050, '1', 0.0139, 0.136, 0.262, 647, 647, 647, 0, 0, 0, 0, 1, 1, 0, 1, 1, 0, 1, 0, 1, 0, 1
1067, 1034, '1', 0.00795, 0.04771, 0.00647, 98, 98, 98, 0, 0, 0, 0, 1, 1, 0, 1, 1, 0, 1, 0, 1, 0, 1
1088, 1036, '1', 0.02065, 0.11793, 0.01772, 98, 98, 98, 0, 0, 0, 0, 1, 1, 0, 1, 1, 0, 1, 0, 1, 0, 1
1037, 1071, '1', 0.00669, 0.04319, 0.00824, 300, 300, 300, 0, 0, 0, 0, 1, 1, 0, 1, 1, 0, 1, 0, 1, 0, 1
1082, 1038, '1', 0.01115, 0.04969, 0.00729, 149, 149, 149, 0, 0, 0, 0, 1, 1, 0, 1, 1, 0, 1, 0, 1, 0, 1
1083, 1038, '1', 0.01, 0.05, 0.007, 221, 221, 221, 0, 0, 0, 0, 1, 1, 0, 1, 1, 0, 1, 0, 1, 0, 1
1040, 1090, '1', 0.02991, 0.13329, 0.01955, 149, 149, 149, 0, 0, 0, 0, 1, 1, 0, 1, 1, 0, 1, 0, 1, 0, 1
1065, 1041, '1', 0.00386, 0.02203, 0.00331, 98, 98, 98, 0, 0, 0, 0, 1, 1, 0, 1, 1, 0, 1, 0, 1, 0, 1
1041, 1067, '1', 0.00393, 0.01722, 0.00262, 149, 149, 149, 0, 0, 0, 0, 1, 1, 0, 1, 1, 0, 1, 0, 1, 0, 1
1044, 3019, '1', 0.03857, 0.17192, 0.02521, 149, 149, 149, 0, 0, 0, 0, 1, 1, 0, 1, 1, 0, 1, 0, 1, 0, 1
3130, 1044, '1', 0.02731, 0.19029, 0.03111, 221, 221, 221, 0, 0, 0, 0, 1, 1, 0, 1, 1, 0, 1, 0, 1, 0, 1
1045, 1064, '1', 0.00545, 0.03794, 0.0062, 221, 221, 221, 0, 0, 0, 0, 1, 1, 0, 1, 1, 0, 1, 0, 1, 0, 1
1087, 1046, '1', 0.03262, 0.14269, 0.02173, 149, 149, 149, 0, 0, 0, 0, 1, 1, 0, 1, 1, 0, 1, 0, 1, 0, 1
1046, 3009, '1', 0.05654, 0.23454, 0.0398, 149, 149, 149, 0, 0, 0, 0, 1, 1, 0, 1, 1, 0, 1, 0, 1, 0, 1
1047, 1085, '1', 0.00947, 0.06117, 0.01167, 221, 221, 221, 0, 0, 0, 0, 1, 1, 0, 1, 1, 0, 1, 0, 1, 0, 1
1053, 1081, '1', 0.003, 0.03, 0.06, 548, 548, 548, 0, 0, 0, 0, 1, 1, 0, 1, 1, 0, 1, 0, 1, 0, 1
1054, 1056, '1', 0.02202, 0.09633, 0.01467, 149, 149, 149, 0, 0, 0, 0, 1, 1, 0, 1, 1, 0, 1, 0, 1, 0, 1
1089, 1054, '1', 0.08737, 0.21357, 0.02796, 98, 98, 98, 0, 0, 0, 0, 1, 1, 0, 1, 1, 0, 1, 0, 1, 0, 1
1055, 1089, '1', 0.04982, 0.12179, 0.01595, 98, 98, 98, 0, 0, 0, 0, 1, 1, 0, 1, 1, 0, 1, 0, 1, 0, 1
1056, 1061, '1', 0.02267, 0.12946, 0.01945, 150, 150, 150, 0, 0, 0, 0, 1, 1, 0, 1, 1, 0, 1, 0, 1, 0, 1
1056, 1065, '1', 0.02269, 0.12962, 0.01948, 250, 250, 250, 0, 0, 0, 0, 1, 1, 0, 1, 1, 0, 1, 0, 1, 0, 1
1069, 1058, '1', 0.0074, 0.05155, 0.00843, 221, 221, 221, 0, 0, 0, 0, 1, 1, 0, 1, 1, 0, 1, 0, 1, 0, 1
1069, 1058, '2', 0.0074, 0.05155, 0.00843, 221, 221, 221, 0, 0, 0, 0, 1, 1, 0, 1, 1, 0, 1, 0, 1, 0, 1
1058, 1087, '1', 0.01573, 0.10956, 0.01791, 221, 221, 221, 0, 0, 0, 0, 1, 1, 0, 1, 1, 0, 1, 0, 1, 0, 1
1058, 1087, '2', 0.01573, 0.10956, 0.01791, 221, 221, 221, 0, 0, 0, 0, 1, 1, 0, 1, 1, 0, 1, 0, 1, 0, 1
1061, 3042, '1', 0.054, 0.18, 0.028, 221, 221, 221, 0, 0, 0, 0, 1, 1, 0, 1, 1, 0, 1, 0, 1, 0, 1
1088, 1068, '1', 0.02962, 0.16921, 0.02543, 98, 98, 98, 0, 0, 0, 0, 1, 1, 0, 1, 1, 0, 1, 0, 1, 0, 1
1082, 1069, '1', 0.02137, 0.0952, 0.01396, 149, 149, 149, 0, 0, 0, 0, 1, 1, 0, 1, 1, 0, 1, 0, 1, 0, 1
3048, 1079, '1', 0.0013, 0.015, 1.02, 2300, 2300, 2300, 0, 0, 0, 0, 1, 1, 0, 1, 1, 0, 1, 0, 1, 0, 1
3048, 1079, '2', 0.0013, 0.015, 1.02, 2300, 2300, 2300, 0, 0, 0, 0, 1, 1, 0, 1, 1, 0, 1, 0, 1, 0, 1
1081, 3058, '1', 0.0091, 0.089, 0.171, 548, 548, 548, 0, 0, 0, 0, 1, 1, 0, 1, 1, 0, 1, 0, 1, 0, 1
1084, 3130, '1', 0.02049, 0.09131, 0.01339, 221, 221, 221, 0, 0, 0, 0, 1, 1, 0, 1, 1, 0, 1, 0, 1, 0, 1
1085, 1086, '1', 0.03392, 0.14838, 0.0226, 149, 149, 149, 0, 0, 0, 0, 1, 1, 0, 1, 1, 0, 1, 0, 1, 0, 1
1090, 1085, '1', 0.02018, 0.13786, 0.02346, 221, 221, 221, 0, 0, 0, 0, 1, 1, 0, 1, 1, 0, 1, 0, 1, 0, 1
2029, 1091, '1', 0.0389, 0.17144, 0.0798, 187, 187, 187, 0, 0, 0, 0, 1, 1, 0, 1, 1, 0, 1, 0, 1, 0, 1
1091, 2048, '1', 0.02193, 0.09667, 0.045, 187, 187, 187, 0, 0, 0, 0, 1, 1, 0, 1, 1, 0, 1, 0, 1, 0, 1
2098, 1091, '1', 0.00554, 0.02443, 0.01137, 187, 187, 187, 0, 0, 0, 0, 1, 1, 0, 1, 1, 0, 1, 0, 1, 0, 1
2022, 2001, '1', 0.00839, 0.03697, 0.01721, 187, 187, 187, 0, 0, 0, 0, 1, 1, 0, 1, 1, 0, 1, 0, 1, 0, 1
2027, 2001, '1', 0.00955, 0.04062, 0.02032, 187, 187, 187, 0, 0, 0, 0, 1, 1, 0, 1, 1, 0, 1, 0, 1, 0, 1
2021, 2002, '1', 0.00097, 0.01175, 0.78032, 2295, 2295, 2295, 0, 0, 0, 0, 1, 1, 0, 1, 1, 0, 1, 0, 1, 0, 1
2002, 2101, '1', 0.00031, 0.0037, 0.24573, 2020, 2020, 2020, 0, 0, 0, 0, 1, 1, 0, 1, 1, 0, 1, 0, 1, 0, 1
2038, 2003, '1', 0.00353, 0.02067, 0.01032, 251, 251, 251, 0, 0, 0, 0, 1, 1, 0, 1, 1, 0, 1, 0, 1, 0, 1
2003, 2047, '1', 0.0013, 0.0099, 0.0052, 310, 310, 310, 0, 0, 0, 0, 1, 1, 0, 1, 1, 0, 1, 0, 1, 0, 1
2007, 2114, '1', 0.00888, 0.05207, 0.026, 251, 251, 251, 0, 0, 0, 0, 1, 1, 0, 1, 1, 0, 1, 0, 1, 0, 1
2007, 2122, '1', 0.00861, 0.03661, 0.01831, 187, 187, 187, 0, 0, 0, 0, 1, 1, 0, 1, 1, 0, 1, 0, 1, 0, 1
2014, 2008, '1', 0.02253, 0.09931, 0.04623, 187, 187, 187, 0, 0, 0, 0, 1, 1, 0, 1, 1, 0, 1, 0, 1, 0, 1
2008, 2052, '1', 0.01877, 0.08271, 0.0385, 187, 187, 187, 0, 0, 0, 0, 1, 1, 0, 1, 1, 0, 1, 0, 1, 0, 1
2009, 2049, '1', 0.01224, 0.07176, 0.03583, 251, 251, 251, 0, 0, 0, 0, 1, 1, 0, 1, 1, 0, 1, 0, 1, 0, 1
2009, 2082, '1', 0.00735, 0.03126, 0.01563, 187, 187, 187, 0, 0, 0, 0, 1, 1, 0, 1, 1, 0, 1, 0, 1, 0, 1
2109, 2009, '1', 0.00725, 0.03084, 0.01542, 250, 250, 250, 0, 0, 0, 0, 1, 1, 0, 1, 1, 0, 1, 0, 1, 0, 1
2061, 2010, '1', 0.02439, 0.10748, 0.05003, 187, 187, 187, 0, 0, 0, 0, 1, 1, 0, 1, 1, 0, 1, 0, 1, 0, 1
2010, 2079, '1', 0.02061, 0.09083, 0.04228, 187, 187, 187, 0, 0, 0, 0, 1, 1, 0, 1, 1, 0, 1, 0, 1, 0, 1
2010, 2091, '1', 0.02461, 0.10467, 0.05235, 187, 187, 187, 0, 0, 0, 0, 1, 1, 0, 1, 1, 0, 1, 0, 1, 0, 1
2127, 2011, '1', 0.00108, 0.01307, 0.86827, 2020, 2020, 2020, 0, 0, 0, 0, 1, 1, 0, 1, 1, 0, 1, 0, 1, 0, 1
2012, 2041, '1', 0.01245, 0.05297, 0.02649, 187, 187, 187, 0, 0, 0, 0, 1, 1, 0, 1, 1, 0, 1, 0, 1, 0, 1
2012, 2052, '1', 0.02008, 0.08851, 0.0412, 187, 187, 187, 0, 0, 0, 0, 1, 1, 0, 1, 1, 0, 1, 0, 1, 0, 1
2093, 2012, '1', 0.01029, 0.04536, 0.02111, 187, 187, 187, 0, 0, 0, 0, 1, 1, 0, 1, 1, 0, 1, 0, 1, 0, 1
...